
---------- Begin Simulation Statistics ----------
simSeconds                                   0.268715                       # Number of seconds simulated (Second)
simTicks                                 268715059001                       # Number of ticks simulated (Tick)
finalTick                                20476658580001                       # Number of ticks from beginning of simulation (restored from checkpoints and never reset) (Tick)
simFreq                                  1000000000000                       # The number of ticks per simulated second ((Tick/Second))
hostSeconds                                  11596.37                       # Real time elapsed on the host (Second)
hostTickRate                                 23172337                       # The number of ticks simulated per host second (ticks/s) ((Tick/Second))
hostMemory                                   39328004                       # Number of bytes of host memory used (Byte)
simInsts                                  11081181871                       # Number of instructions simulated (Count)
simOps                                    11622896524                       # Number of ops (including micro ops) simulated (Count)
hostInstRate                                   955573                       # Simulator instruction rate (inst/s) ((Count/Second))
hostOpRate                                    1002287                       # Simulator op (including micro ops) rate (op/s) ((Count/Second))
system.clk_domain.clock                          1000                       # Clock period in ticks (Tick)
system.cpu0.numCycles                               0                       # Number of cpu cycles simulated (Cycle)
system.cpu0.cpi                                   nan                       # CPI: cycles per instruction (core level) ((Cycle/Count))
system.cpu0.ipc                                   nan                       # IPC: instructions per cycle (core level) ((Count/Cycle))
system.cpu0.numWorkItemsStarted                     0                       # Number of work items this cpu started (Count)
system.cpu0.numWorkItemsCompleted                   0                       # Number of work items this cpu completed (Count)
system.cpu0.numVMExits                              0                       # total number of KVM exits (Count)
system.cpu0.numVMHalfEntries                        0                       # number of KVM entries to finalize pending operations (Count)
system.cpu0.numExitSignal                           0                       # exits due to signal delivery (Count)
system.cpu0.numMMIO                                 0                       # number of VM exits due to memory mapped IO (Count)
system.cpu0.numCoalescedMMIO                        0                       # number of coalesced memory mapped IO requests (Count)
system.cpu0.numIO                                   0                       # number of VM exits due to legacy IO (Count)
system.cpu0.numHalt                                 0                       # number of VM exits due to wait for interrupt instructions (Count)
system.cpu0.numInterrupts                           0                       # number of interrupts delivered (Count)
system.cpu0.numHypercalls                           0                       # number of hypercalls (Count)
system.cpu0.commitStats0.numOps                     0                       # Number of ops (including micro ops) committed (thread level) (Count)
system.cpu0.commitStats0.numInstsNotNOP             0                       # Number of instructions committed excluding NOPs or prefetches (Count)
system.cpu0.commitStats0.numOpsNotNOP               0                       # Number of Ops (including micro ops) Simulated (Count)
system.cpu0.commitStats0.cpi                      nan                       # CPI: cycles per instruction (thread level) ((Cycle/Count))
system.cpu0.commitStats0.ipc                      nan                       # IPC: instructions per cycle (thread level) ((Count/Cycle))
system.cpu0.commitStats0.numMemRefs                 0                       # Number of memory references committed (Count)
system.cpu0.commitStats0.numFpInsts                 0                       # Number of float instructions (Count)
system.cpu0.commitStats0.numIntInsts                0                       # Number of integer instructions (Count)
system.cpu0.commitStats0.numLoadInsts               0                       # Number of load instructions (Count)
system.cpu0.commitStats0.numStoreInsts              0                       # Number of store instructions (Count)
system.cpu0.commitStats0.numVecInsts                0                       # Number of vector instructions (Count)
system.cpu0.commitStats0.committedInstType::No_OpClass            0                       # Class of committed instruction. (Count)
system.cpu0.commitStats0.committedInstType::IntAlu            0                       # Class of committed instruction. (Count)
system.cpu0.commitStats0.committedInstType::IntMult            0                       # Class of committed instruction. (Count)
system.cpu0.commitStats0.committedInstType::IntDiv            0                       # Class of committed instruction. (Count)
system.cpu0.commitStats0.committedInstType::FloatAdd            0                       # Class of committed instruction. (Count)
system.cpu0.commitStats0.committedInstType::FloatCmp            0                       # Class of committed instruction. (Count)
system.cpu0.commitStats0.committedInstType::FloatCvt            0                       # Class of committed instruction. (Count)
system.cpu0.commitStats0.committedInstType::FloatMult            0                       # Class of committed instruction. (Count)
system.cpu0.commitStats0.committedInstType::FloatMultAcc            0                       # Class of committed instruction. (Count)
system.cpu0.commitStats0.committedInstType::FloatDiv            0                       # Class of committed instruction. (Count)
system.cpu0.commitStats0.committedInstType::FloatMisc            0                       # Class of committed instruction. (Count)
system.cpu0.commitStats0.committedInstType::FloatSqrt            0                       # Class of committed instruction. (Count)
system.cpu0.commitStats0.committedInstType::SimdAdd            0                       # Class of committed instruction. (Count)
system.cpu0.commitStats0.committedInstType::SimdAddAcc            0                       # Class of committed instruction. (Count)
system.cpu0.commitStats0.committedInstType::SimdAlu            0                       # Class of committed instruction. (Count)
system.cpu0.commitStats0.committedInstType::SimdCmp            0                       # Class of committed instruction. (Count)
system.cpu0.commitStats0.committedInstType::SimdCvt            0                       # Class of committed instruction. (Count)
system.cpu0.commitStats0.committedInstType::SimdMisc            0                       # Class of committed instruction. (Count)
system.cpu0.commitStats0.committedInstType::SimdMult            0                       # Class of committed instruction. (Count)
system.cpu0.commitStats0.committedInstType::SimdMultAcc            0                       # Class of committed instruction. (Count)
system.cpu0.commitStats0.committedInstType::SimdMatMultAcc            0                       # Class of committed instruction. (Count)
system.cpu0.commitStats0.committedInstType::SimdShift            0                       # Class of committed instruction. (Count)
system.cpu0.commitStats0.committedInstType::SimdShiftAcc            0                       # Class of committed instruction. (Count)
system.cpu0.commitStats0.committedInstType::SimdDiv            0                       # Class of committed instruction. (Count)
system.cpu0.commitStats0.committedInstType::SimdSqrt            0                       # Class of committed instruction. (Count)
system.cpu0.commitStats0.committedInstType::SimdFloatAdd            0                       # Class of committed instruction. (Count)
system.cpu0.commitStats0.committedInstType::SimdFloatAlu            0                       # Class of committed instruction. (Count)
system.cpu0.commitStats0.committedInstType::SimdFloatCmp            0                       # Class of committed instruction. (Count)
system.cpu0.commitStats0.committedInstType::SimdFloatCvt            0                       # Class of committed instruction. (Count)
system.cpu0.commitStats0.committedInstType::SimdFloatDiv            0                       # Class of committed instruction. (Count)
system.cpu0.commitStats0.committedInstType::SimdFloatMisc            0                       # Class of committed instruction. (Count)
system.cpu0.commitStats0.committedInstType::SimdFloatMult            0                       # Class of committed instruction. (Count)
system.cpu0.commitStats0.committedInstType::SimdFloatMultAcc            0                       # Class of committed instruction. (Count)
system.cpu0.commitStats0.committedInstType::SimdFloatMatMultAcc            0                       # Class of committed instruction. (Count)
system.cpu0.commitStats0.committedInstType::SimdFloatSqrt            0                       # Class of committed instruction. (Count)
system.cpu0.commitStats0.committedInstType::SimdReduceAdd            0                       # Class of committed instruction. (Count)
system.cpu0.commitStats0.committedInstType::SimdReduceAlu            0                       # Class of committed instruction. (Count)
system.cpu0.commitStats0.committedInstType::SimdReduceCmp            0                       # Class of committed instruction. (Count)
system.cpu0.commitStats0.committedInstType::SimdFloatReduceAdd            0                       # Class of committed instruction. (Count)
system.cpu0.commitStats0.committedInstType::SimdFloatReduceCmp            0                       # Class of committed instruction. (Count)
system.cpu0.commitStats0.committedInstType::SimdAes            0                       # Class of committed instruction. (Count)
system.cpu0.commitStats0.committedInstType::SimdAesMix            0                       # Class of committed instruction. (Count)
system.cpu0.commitStats0.committedInstType::SimdSha1Hash            0                       # Class of committed instruction. (Count)
system.cpu0.commitStats0.committedInstType::SimdSha1Hash2            0                       # Class of committed instruction. (Count)
system.cpu0.commitStats0.committedInstType::SimdSha256Hash            0                       # Class of committed instruction. (Count)
system.cpu0.commitStats0.committedInstType::SimdSha256Hash2            0                       # Class of committed instruction. (Count)
system.cpu0.commitStats0.committedInstType::SimdShaSigma2            0                       # Class of committed instruction. (Count)
system.cpu0.commitStats0.committedInstType::SimdShaSigma3            0                       # Class of committed instruction. (Count)
system.cpu0.commitStats0.committedInstType::SimdPredAlu            0                       # Class of committed instruction. (Count)
system.cpu0.commitStats0.committedInstType::Matrix            0                       # Class of committed instruction. (Count)
system.cpu0.commitStats0.committedInstType::MatrixMov            0                       # Class of committed instruction. (Count)
system.cpu0.commitStats0.committedInstType::MatrixOP            0                       # Class of committed instruction. (Count)
system.cpu0.commitStats0.committedInstType::MemRead            0                       # Class of committed instruction. (Count)
system.cpu0.commitStats0.committedInstType::MemWrite            0                       # Class of committed instruction. (Count)
system.cpu0.commitStats0.committedInstType::FloatMemRead            0                       # Class of committed instruction. (Count)
system.cpu0.commitStats0.committedInstType::FloatMemWrite            0                       # Class of committed instruction. (Count)
system.cpu0.commitStats0.committedInstType::IprAccess            0                       # Class of committed instruction. (Count)
system.cpu0.commitStats0.committedInstType::InstPrefetch            0                       # Class of committed instruction. (Count)
system.cpu0.commitStats0.committedInstType::VectorUnitStrideLoad            0                       # Class of committed instruction. (Count)
system.cpu0.commitStats0.committedInstType::VectorUnitStrideStore            0                       # Class of committed instruction. (Count)
system.cpu0.commitStats0.committedInstType::VectorUnitStrideMaskLoad            0                       # Class of committed instruction. (Count)
system.cpu0.commitStats0.committedInstType::VectorUnitStrideMaskStore            0                       # Class of committed instruction. (Count)
system.cpu0.commitStats0.committedInstType::VectorStridedLoad            0                       # Class of committed instruction. (Count)
system.cpu0.commitStats0.committedInstType::VectorStridedStore            0                       # Class of committed instruction. (Count)
system.cpu0.commitStats0.committedInstType::VectorIndexedLoad            0                       # Class of committed instruction. (Count)
system.cpu0.commitStats0.committedInstType::VectorIndexedStore            0                       # Class of committed instruction. (Count)
system.cpu0.commitStats0.committedInstType::VectorUnitStrideFaultOnlyFirstLoad            0                       # Class of committed instruction. (Count)
system.cpu0.commitStats0.committedInstType::VectorWholeRegisterLoad            0                       # Class of committed instruction. (Count)
system.cpu0.commitStats0.committedInstType::VectorWholeRegisterStore            0                       # Class of committed instruction. (Count)
system.cpu0.commitStats0.committedInstType::VectorIntegerArith            0                       # Class of committed instruction. (Count)
system.cpu0.commitStats0.committedInstType::VectorFloatArith            0                       # Class of committed instruction. (Count)
system.cpu0.commitStats0.committedInstType::VectorFloatConvert            0                       # Class of committed instruction. (Count)
system.cpu0.commitStats0.committedInstType::VectorIntegerReduce            0                       # Class of committed instruction. (Count)
system.cpu0.commitStats0.committedInstType::VectorFloatReduce            0                       # Class of committed instruction. (Count)
system.cpu0.commitStats0.committedInstType::VectorMisc            0                       # Class of committed instruction. (Count)
system.cpu0.commitStats0.committedInstType::VectorIntegerExtension            0                       # Class of committed instruction. (Count)
system.cpu0.commitStats0.committedInstType::VectorConfig            0                       # Class of committed instruction. (Count)
system.cpu0.commitStats0.committedInstType::total            0                       # Class of committed instruction. (Count)
system.cpu0.executeStats0.numInsts                  0                       # Number of executed instructions (Count)
system.cpu0.executeStats0.numNop                    0                       # Number of nop insts executed (Count)
system.cpu0.executeStats0.numBranches               0                       # Number of branches executed (Count)
system.cpu0.executeStats0.numLoadInsts              0                       # Number of load instructions executed (Count)
system.cpu0.executeStats0.numStoreInsts             0                       # Number of stores executed (Count)
system.cpu0.executeStats0.instRate                nan                       # Inst execution rate ((Count/Cycle))
system.cpu0.executeStats0.numFpRegWrites            0                       # Number of times the floating registers were written (Count)
system.cpu0.executeStats0.numMemRefs                0                       # Number of memory refs (Count)
system.cpu0.executeStats0.numVecAluAccesses            0                       # Number of vector alu accesses (Count)
system.cpu0.executeStats0.numDiscardedOps            0                       # Number of ops (including micro ops) which were discarded before commit (Count)
system.cpu0.fetchStats0.numInsts                    0                       # Number of instructions fetched (thread level) (Count)
system.cpu0.fetchStats0.numOps                      0                       # Number of ops (including micro ops) fetched (thread level) (Count)
system.cpu0.fetchStats0.fetchRate                 nan                       # Number of inst fetches per cycle ((Count/Cycle))
system.cpu0.fetchStats0.branchRate                nan                       # Number of branch fetches per cycle (Ratio)
system.cpu0.fetchStats0.numFetchSuspends            0                       # Number of times Execute suspended instruction fetching (Count)
system.cpu0.interrupts.clk_domain.clock          8000                       # Clock period in ticks (Tick)
system.cpu0.mmu.dtb.rdAccesses                      0                       # TLB accesses on read requests (Count)
system.cpu0.mmu.dtb.wrAccesses                      0                       # TLB accesses on write requests (Count)
system.cpu0.mmu.dtb.rdMisses                        0                       # TLB misses on read requests (Count)
system.cpu0.mmu.dtb.wrMisses                        0                       # TLB misses on write requests (Count)
system.cpu0.mmu.dtb.walker.power_state.pwrStateResidencyTicks::UNDEFINED 20476658580001                       # Cumulative time (in ticks) in various power states (Tick)
system.cpu0.mmu.itb.rdAccesses                      0                       # TLB accesses on read requests (Count)
system.cpu0.mmu.itb.wrAccesses                      0                       # TLB accesses on write requests (Count)
system.cpu0.mmu.itb.rdMisses                        0                       # TLB misses on read requests (Count)
system.cpu0.mmu.itb.wrMisses                        0                       # TLB misses on write requests (Count)
system.cpu0.mmu.itb.walker.power_state.pwrStateResidencyTicks::UNDEFINED 20476658580001                       # Cumulative time (in ticks) in various power states (Tick)
system.cpu0.power_state.numTransitions              1                       # Number of power state transitions (Count)
system.cpu0.power_state.pwrStateResidencyTicks::ON 20210134613000                       # Cumulative time (in ticks) in various power states (Tick)
system.cpu0.power_state.pwrStateResidencyTicks::OFF 266523967001                       # Cumulative time (in ticks) in various power states (Tick)
system.cpu0.thread_0.numInsts                       0                       # Number of Instructions committed (Count)
system.cpu0.thread_0.numOps                         0                       # Number of Ops committed (Count)
system.cpu0.thread_0.numMemRefs                     0                       # Number of Memory References (Count)
system.cpu1.numCycles                               0                       # Number of cpu cycles simulated (Cycle)
system.cpu1.cpi                                   nan                       # CPI: cycles per instruction (core level) ((Cycle/Count))
system.cpu1.ipc                                   nan                       # IPC: instructions per cycle (core level) ((Count/Cycle))
system.cpu1.numWorkItemsStarted                     0                       # Number of work items this cpu started (Count)
system.cpu1.numWorkItemsCompleted                   0                       # Number of work items this cpu completed (Count)
system.cpu1.numVMExits                              0                       # total number of KVM exits (Count)
system.cpu1.numVMHalfEntries                        0                       # number of KVM entries to finalize pending operations (Count)
system.cpu1.numExitSignal                           0                       # exits due to signal delivery (Count)
system.cpu1.numMMIO                                 0                       # number of VM exits due to memory mapped IO (Count)
system.cpu1.numCoalescedMMIO                        0                       # number of coalesced memory mapped IO requests (Count)
system.cpu1.numIO                                   0                       # number of VM exits due to legacy IO (Count)
system.cpu1.numHalt                                 0                       # number of VM exits due to wait for interrupt instructions (Count)
system.cpu1.numInterrupts                           0                       # number of interrupts delivered (Count)
system.cpu1.numHypercalls                           0                       # number of hypercalls (Count)
system.cpu1.commitStats0.numOps                     0                       # Number of ops (including micro ops) committed (thread level) (Count)
system.cpu1.commitStats0.numInstsNotNOP             0                       # Number of instructions committed excluding NOPs or prefetches (Count)
system.cpu1.commitStats0.numOpsNotNOP               0                       # Number of Ops (including micro ops) Simulated (Count)
system.cpu1.commitStats0.cpi                      nan                       # CPI: cycles per instruction (thread level) ((Cycle/Count))
system.cpu1.commitStats0.ipc                      nan                       # IPC: instructions per cycle (thread level) ((Count/Cycle))
system.cpu1.commitStats0.numMemRefs                 0                       # Number of memory references committed (Count)
system.cpu1.commitStats0.numFpInsts                 0                       # Number of float instructions (Count)
system.cpu1.commitStats0.numIntInsts                0                       # Number of integer instructions (Count)
system.cpu1.commitStats0.numLoadInsts               0                       # Number of load instructions (Count)
system.cpu1.commitStats0.numStoreInsts              0                       # Number of store instructions (Count)
system.cpu1.commitStats0.numVecInsts                0                       # Number of vector instructions (Count)
system.cpu1.commitStats0.committedInstType::No_OpClass            0                       # Class of committed instruction. (Count)
system.cpu1.commitStats0.committedInstType::IntAlu            0                       # Class of committed instruction. (Count)
system.cpu1.commitStats0.committedInstType::IntMult            0                       # Class of committed instruction. (Count)
system.cpu1.commitStats0.committedInstType::IntDiv            0                       # Class of committed instruction. (Count)
system.cpu1.commitStats0.committedInstType::FloatAdd            0                       # Class of committed instruction. (Count)
system.cpu1.commitStats0.committedInstType::FloatCmp            0                       # Class of committed instruction. (Count)
system.cpu1.commitStats0.committedInstType::FloatCvt            0                       # Class of committed instruction. (Count)
system.cpu1.commitStats0.committedInstType::FloatMult            0                       # Class of committed instruction. (Count)
system.cpu1.commitStats0.committedInstType::FloatMultAcc            0                       # Class of committed instruction. (Count)
system.cpu1.commitStats0.committedInstType::FloatDiv            0                       # Class of committed instruction. (Count)
system.cpu1.commitStats0.committedInstType::FloatMisc            0                       # Class of committed instruction. (Count)
system.cpu1.commitStats0.committedInstType::FloatSqrt            0                       # Class of committed instruction. (Count)
system.cpu1.commitStats0.committedInstType::SimdAdd            0                       # Class of committed instruction. (Count)
system.cpu1.commitStats0.committedInstType::SimdAddAcc            0                       # Class of committed instruction. (Count)
system.cpu1.commitStats0.committedInstType::SimdAlu            0                       # Class of committed instruction. (Count)
system.cpu1.commitStats0.committedInstType::SimdCmp            0                       # Class of committed instruction. (Count)
system.cpu1.commitStats0.committedInstType::SimdCvt            0                       # Class of committed instruction. (Count)
system.cpu1.commitStats0.committedInstType::SimdMisc            0                       # Class of committed instruction. (Count)
system.cpu1.commitStats0.committedInstType::SimdMult            0                       # Class of committed instruction. (Count)
system.cpu1.commitStats0.committedInstType::SimdMultAcc            0                       # Class of committed instruction. (Count)
system.cpu1.commitStats0.committedInstType::SimdMatMultAcc            0                       # Class of committed instruction. (Count)
system.cpu1.commitStats0.committedInstType::SimdShift            0                       # Class of committed instruction. (Count)
system.cpu1.commitStats0.committedInstType::SimdShiftAcc            0                       # Class of committed instruction. (Count)
system.cpu1.commitStats0.committedInstType::SimdDiv            0                       # Class of committed instruction. (Count)
system.cpu1.commitStats0.committedInstType::SimdSqrt            0                       # Class of committed instruction. (Count)
system.cpu1.commitStats0.committedInstType::SimdFloatAdd            0                       # Class of committed instruction. (Count)
system.cpu1.commitStats0.committedInstType::SimdFloatAlu            0                       # Class of committed instruction. (Count)
system.cpu1.commitStats0.committedInstType::SimdFloatCmp            0                       # Class of committed instruction. (Count)
system.cpu1.commitStats0.committedInstType::SimdFloatCvt            0                       # Class of committed instruction. (Count)
system.cpu1.commitStats0.committedInstType::SimdFloatDiv            0                       # Class of committed instruction. (Count)
system.cpu1.commitStats0.committedInstType::SimdFloatMisc            0                       # Class of committed instruction. (Count)
system.cpu1.commitStats0.committedInstType::SimdFloatMult            0                       # Class of committed instruction. (Count)
system.cpu1.commitStats0.committedInstType::SimdFloatMultAcc            0                       # Class of committed instruction. (Count)
system.cpu1.commitStats0.committedInstType::SimdFloatMatMultAcc            0                       # Class of committed instruction. (Count)
system.cpu1.commitStats0.committedInstType::SimdFloatSqrt            0                       # Class of committed instruction. (Count)
system.cpu1.commitStats0.committedInstType::SimdReduceAdd            0                       # Class of committed instruction. (Count)
system.cpu1.commitStats0.committedInstType::SimdReduceAlu            0                       # Class of committed instruction. (Count)
system.cpu1.commitStats0.committedInstType::SimdReduceCmp            0                       # Class of committed instruction. (Count)
system.cpu1.commitStats0.committedInstType::SimdFloatReduceAdd            0                       # Class of committed instruction. (Count)
system.cpu1.commitStats0.committedInstType::SimdFloatReduceCmp            0                       # Class of committed instruction. (Count)
system.cpu1.commitStats0.committedInstType::SimdAes            0                       # Class of committed instruction. (Count)
system.cpu1.commitStats0.committedInstType::SimdAesMix            0                       # Class of committed instruction. (Count)
system.cpu1.commitStats0.committedInstType::SimdSha1Hash            0                       # Class of committed instruction. (Count)
system.cpu1.commitStats0.committedInstType::SimdSha1Hash2            0                       # Class of committed instruction. (Count)
system.cpu1.commitStats0.committedInstType::SimdSha256Hash            0                       # Class of committed instruction. (Count)
system.cpu1.commitStats0.committedInstType::SimdSha256Hash2            0                       # Class of committed instruction. (Count)
system.cpu1.commitStats0.committedInstType::SimdShaSigma2            0                       # Class of committed instruction. (Count)
system.cpu1.commitStats0.committedInstType::SimdShaSigma3            0                       # Class of committed instruction. (Count)
system.cpu1.commitStats0.committedInstType::SimdPredAlu            0                       # Class of committed instruction. (Count)
system.cpu1.commitStats0.committedInstType::Matrix            0                       # Class of committed instruction. (Count)
system.cpu1.commitStats0.committedInstType::MatrixMov            0                       # Class of committed instruction. (Count)
system.cpu1.commitStats0.committedInstType::MatrixOP            0                       # Class of committed instruction. (Count)
system.cpu1.commitStats0.committedInstType::MemRead            0                       # Class of committed instruction. (Count)
system.cpu1.commitStats0.committedInstType::MemWrite            0                       # Class of committed instruction. (Count)
system.cpu1.commitStats0.committedInstType::FloatMemRead            0                       # Class of committed instruction. (Count)
system.cpu1.commitStats0.committedInstType::FloatMemWrite            0                       # Class of committed instruction. (Count)
system.cpu1.commitStats0.committedInstType::IprAccess            0                       # Class of committed instruction. (Count)
system.cpu1.commitStats0.committedInstType::InstPrefetch            0                       # Class of committed instruction. (Count)
system.cpu1.commitStats0.committedInstType::VectorUnitStrideLoad            0                       # Class of committed instruction. (Count)
system.cpu1.commitStats0.committedInstType::VectorUnitStrideStore            0                       # Class of committed instruction. (Count)
system.cpu1.commitStats0.committedInstType::VectorUnitStrideMaskLoad            0                       # Class of committed instruction. (Count)
system.cpu1.commitStats0.committedInstType::VectorUnitStrideMaskStore            0                       # Class of committed instruction. (Count)
system.cpu1.commitStats0.committedInstType::VectorStridedLoad            0                       # Class of committed instruction. (Count)
system.cpu1.commitStats0.committedInstType::VectorStridedStore            0                       # Class of committed instruction. (Count)
system.cpu1.commitStats0.committedInstType::VectorIndexedLoad            0                       # Class of committed instruction. (Count)
system.cpu1.commitStats0.committedInstType::VectorIndexedStore            0                       # Class of committed instruction. (Count)
system.cpu1.commitStats0.committedInstType::VectorUnitStrideFaultOnlyFirstLoad            0                       # Class of committed instruction. (Count)
system.cpu1.commitStats0.committedInstType::VectorWholeRegisterLoad            0                       # Class of committed instruction. (Count)
system.cpu1.commitStats0.committedInstType::VectorWholeRegisterStore            0                       # Class of committed instruction. (Count)
system.cpu1.commitStats0.committedInstType::VectorIntegerArith            0                       # Class of committed instruction. (Count)
system.cpu1.commitStats0.committedInstType::VectorFloatArith            0                       # Class of committed instruction. (Count)
system.cpu1.commitStats0.committedInstType::VectorFloatConvert            0                       # Class of committed instruction. (Count)
system.cpu1.commitStats0.committedInstType::VectorIntegerReduce            0                       # Class of committed instruction. (Count)
system.cpu1.commitStats0.committedInstType::VectorFloatReduce            0                       # Class of committed instruction. (Count)
system.cpu1.commitStats0.committedInstType::VectorMisc            0                       # Class of committed instruction. (Count)
system.cpu1.commitStats0.committedInstType::VectorIntegerExtension            0                       # Class of committed instruction. (Count)
system.cpu1.commitStats0.committedInstType::VectorConfig            0                       # Class of committed instruction. (Count)
system.cpu1.commitStats0.committedInstType::total            0                       # Class of committed instruction. (Count)
system.cpu1.executeStats0.numInsts                  0                       # Number of executed instructions (Count)
system.cpu1.executeStats0.numNop                    0                       # Number of nop insts executed (Count)
system.cpu1.executeStats0.numBranches               0                       # Number of branches executed (Count)
system.cpu1.executeStats0.numLoadInsts              0                       # Number of load instructions executed (Count)
system.cpu1.executeStats0.numStoreInsts             0                       # Number of stores executed (Count)
system.cpu1.executeStats0.instRate                nan                       # Inst execution rate ((Count/Cycle))
system.cpu1.executeStats0.numFpRegWrites            0                       # Number of times the floating registers were written (Count)
system.cpu1.executeStats0.numMemRefs                0                       # Number of memory refs (Count)
system.cpu1.executeStats0.numVecAluAccesses            0                       # Number of vector alu accesses (Count)
system.cpu1.executeStats0.numDiscardedOps            0                       # Number of ops (including micro ops) which were discarded before commit (Count)
system.cpu1.fetchStats0.numInsts                    0                       # Number of instructions fetched (thread level) (Count)
system.cpu1.fetchStats0.numOps                      0                       # Number of ops (including micro ops) fetched (thread level) (Count)
system.cpu1.fetchStats0.fetchRate                 nan                       # Number of inst fetches per cycle ((Count/Cycle))
system.cpu1.fetchStats0.branchRate                nan                       # Number of branch fetches per cycle (Ratio)
system.cpu1.fetchStats0.numFetchSuspends            0                       # Number of times Execute suspended instruction fetching (Count)
system.cpu1.interrupts.clk_domain.clock          8000                       # Clock period in ticks (Tick)
system.cpu1.mmu.dtb.rdAccesses                      0                       # TLB accesses on read requests (Count)
system.cpu1.mmu.dtb.wrAccesses                      0                       # TLB accesses on write requests (Count)
system.cpu1.mmu.dtb.rdMisses                        0                       # TLB misses on read requests (Count)
system.cpu1.mmu.dtb.wrMisses                        0                       # TLB misses on write requests (Count)
system.cpu1.mmu.dtb.walker.power_state.pwrStateResidencyTicks::UNDEFINED 20476658580001                       # Cumulative time (in ticks) in various power states (Tick)
system.cpu1.mmu.itb.rdAccesses                      0                       # TLB accesses on read requests (Count)
system.cpu1.mmu.itb.wrAccesses                      0                       # TLB accesses on write requests (Count)
system.cpu1.mmu.itb.rdMisses                        0                       # TLB misses on read requests (Count)
system.cpu1.mmu.itb.wrMisses                        0                       # TLB misses on write requests (Count)
system.cpu1.mmu.itb.walker.power_state.pwrStateResidencyTicks::UNDEFINED 20476658580001                       # Cumulative time (in ticks) in various power states (Tick)
system.cpu1.power_state.numTransitions              1                       # Number of power state transitions (Count)
system.cpu1.power_state.pwrStateResidencyTicks::ON 20210134613000                       # Cumulative time (in ticks) in various power states (Tick)
system.cpu1.power_state.pwrStateResidencyTicks::OFF 266523967001                       # Cumulative time (in ticks) in various power states (Tick)
system.cpu1.thread_0.numInsts                       0                       # Number of Instructions committed (Count)
system.cpu1.thread_0.numOps                         0                       # Number of Ops committed (Count)
system.cpu1.thread_0.numMemRefs                     0                       # Number of Memory References (Count)
system.cpu10.numCycles                              0                       # Number of cpu cycles simulated (Cycle)
system.cpu10.cpi                                  nan                       # CPI: cycles per instruction (core level) ((Cycle/Count))
system.cpu10.ipc                                  nan                       # IPC: instructions per cycle (core level) ((Count/Cycle))
system.cpu10.numWorkItemsStarted                    0                       # Number of work items this cpu started (Count)
system.cpu10.numWorkItemsCompleted                  0                       # Number of work items this cpu completed (Count)
system.cpu10.numVMExits                             0                       # total number of KVM exits (Count)
system.cpu10.numVMHalfEntries                       0                       # number of KVM entries to finalize pending operations (Count)
system.cpu10.numExitSignal                          0                       # exits due to signal delivery (Count)
system.cpu10.numMMIO                                0                       # number of VM exits due to memory mapped IO (Count)
system.cpu10.numCoalescedMMIO                       0                       # number of coalesced memory mapped IO requests (Count)
system.cpu10.numIO                                  0                       # number of VM exits due to legacy IO (Count)
system.cpu10.numHalt                                0                       # number of VM exits due to wait for interrupt instructions (Count)
system.cpu10.numInterrupts                          0                       # number of interrupts delivered (Count)
system.cpu10.numHypercalls                          0                       # number of hypercalls (Count)
system.cpu10.commitStats0.numOps                    0                       # Number of ops (including micro ops) committed (thread level) (Count)
system.cpu10.commitStats0.numInstsNotNOP            0                       # Number of instructions committed excluding NOPs or prefetches (Count)
system.cpu10.commitStats0.numOpsNotNOP              0                       # Number of Ops (including micro ops) Simulated (Count)
system.cpu10.commitStats0.cpi                     nan                       # CPI: cycles per instruction (thread level) ((Cycle/Count))
system.cpu10.commitStats0.ipc                     nan                       # IPC: instructions per cycle (thread level) ((Count/Cycle))
system.cpu10.commitStats0.numMemRefs                0                       # Number of memory references committed (Count)
system.cpu10.commitStats0.numFpInsts                0                       # Number of float instructions (Count)
system.cpu10.commitStats0.numIntInsts               0                       # Number of integer instructions (Count)
system.cpu10.commitStats0.numLoadInsts              0                       # Number of load instructions (Count)
system.cpu10.commitStats0.numStoreInsts             0                       # Number of store instructions (Count)
system.cpu10.commitStats0.numVecInsts               0                       # Number of vector instructions (Count)
system.cpu10.commitStats0.committedInstType::No_OpClass            0                       # Class of committed instruction. (Count)
system.cpu10.commitStats0.committedInstType::IntAlu            0                       # Class of committed instruction. (Count)
system.cpu10.commitStats0.committedInstType::IntMult            0                       # Class of committed instruction. (Count)
system.cpu10.commitStats0.committedInstType::IntDiv            0                       # Class of committed instruction. (Count)
system.cpu10.commitStats0.committedInstType::FloatAdd            0                       # Class of committed instruction. (Count)
system.cpu10.commitStats0.committedInstType::FloatCmp            0                       # Class of committed instruction. (Count)
system.cpu10.commitStats0.committedInstType::FloatCvt            0                       # Class of committed instruction. (Count)
system.cpu10.commitStats0.committedInstType::FloatMult            0                       # Class of committed instruction. (Count)
system.cpu10.commitStats0.committedInstType::FloatMultAcc            0                       # Class of committed instruction. (Count)
system.cpu10.commitStats0.committedInstType::FloatDiv            0                       # Class of committed instruction. (Count)
system.cpu10.commitStats0.committedInstType::FloatMisc            0                       # Class of committed instruction. (Count)
system.cpu10.commitStats0.committedInstType::FloatSqrt            0                       # Class of committed instruction. (Count)
system.cpu10.commitStats0.committedInstType::SimdAdd            0                       # Class of committed instruction. (Count)
system.cpu10.commitStats0.committedInstType::SimdAddAcc            0                       # Class of committed instruction. (Count)
system.cpu10.commitStats0.committedInstType::SimdAlu            0                       # Class of committed instruction. (Count)
system.cpu10.commitStats0.committedInstType::SimdCmp            0                       # Class of committed instruction. (Count)
system.cpu10.commitStats0.committedInstType::SimdCvt            0                       # Class of committed instruction. (Count)
system.cpu10.commitStats0.committedInstType::SimdMisc            0                       # Class of committed instruction. (Count)
system.cpu10.commitStats0.committedInstType::SimdMult            0                       # Class of committed instruction. (Count)
system.cpu10.commitStats0.committedInstType::SimdMultAcc            0                       # Class of committed instruction. (Count)
system.cpu10.commitStats0.committedInstType::SimdMatMultAcc            0                       # Class of committed instruction. (Count)
system.cpu10.commitStats0.committedInstType::SimdShift            0                       # Class of committed instruction. (Count)
system.cpu10.commitStats0.committedInstType::SimdShiftAcc            0                       # Class of committed instruction. (Count)
system.cpu10.commitStats0.committedInstType::SimdDiv            0                       # Class of committed instruction. (Count)
system.cpu10.commitStats0.committedInstType::SimdSqrt            0                       # Class of committed instruction. (Count)
system.cpu10.commitStats0.committedInstType::SimdFloatAdd            0                       # Class of committed instruction. (Count)
system.cpu10.commitStats0.committedInstType::SimdFloatAlu            0                       # Class of committed instruction. (Count)
system.cpu10.commitStats0.committedInstType::SimdFloatCmp            0                       # Class of committed instruction. (Count)
system.cpu10.commitStats0.committedInstType::SimdFloatCvt            0                       # Class of committed instruction. (Count)
system.cpu10.commitStats0.committedInstType::SimdFloatDiv            0                       # Class of committed instruction. (Count)
system.cpu10.commitStats0.committedInstType::SimdFloatMisc            0                       # Class of committed instruction. (Count)
system.cpu10.commitStats0.committedInstType::SimdFloatMult            0                       # Class of committed instruction. (Count)
system.cpu10.commitStats0.committedInstType::SimdFloatMultAcc            0                       # Class of committed instruction. (Count)
system.cpu10.commitStats0.committedInstType::SimdFloatMatMultAcc            0                       # Class of committed instruction. (Count)
system.cpu10.commitStats0.committedInstType::SimdFloatSqrt            0                       # Class of committed instruction. (Count)
system.cpu10.commitStats0.committedInstType::SimdReduceAdd            0                       # Class of committed instruction. (Count)
system.cpu10.commitStats0.committedInstType::SimdReduceAlu            0                       # Class of committed instruction. (Count)
system.cpu10.commitStats0.committedInstType::SimdReduceCmp            0                       # Class of committed instruction. (Count)
system.cpu10.commitStats0.committedInstType::SimdFloatReduceAdd            0                       # Class of committed instruction. (Count)
system.cpu10.commitStats0.committedInstType::SimdFloatReduceCmp            0                       # Class of committed instruction. (Count)
system.cpu10.commitStats0.committedInstType::SimdAes            0                       # Class of committed instruction. (Count)
system.cpu10.commitStats0.committedInstType::SimdAesMix            0                       # Class of committed instruction. (Count)
system.cpu10.commitStats0.committedInstType::SimdSha1Hash            0                       # Class of committed instruction. (Count)
system.cpu10.commitStats0.committedInstType::SimdSha1Hash2            0                       # Class of committed instruction. (Count)
system.cpu10.commitStats0.committedInstType::SimdSha256Hash            0                       # Class of committed instruction. (Count)
system.cpu10.commitStats0.committedInstType::SimdSha256Hash2            0                       # Class of committed instruction. (Count)
system.cpu10.commitStats0.committedInstType::SimdShaSigma2            0                       # Class of committed instruction. (Count)
system.cpu10.commitStats0.committedInstType::SimdShaSigma3            0                       # Class of committed instruction. (Count)
system.cpu10.commitStats0.committedInstType::SimdPredAlu            0                       # Class of committed instruction. (Count)
system.cpu10.commitStats0.committedInstType::Matrix            0                       # Class of committed instruction. (Count)
system.cpu10.commitStats0.committedInstType::MatrixMov            0                       # Class of committed instruction. (Count)
system.cpu10.commitStats0.committedInstType::MatrixOP            0                       # Class of committed instruction. (Count)
system.cpu10.commitStats0.committedInstType::MemRead            0                       # Class of committed instruction. (Count)
system.cpu10.commitStats0.committedInstType::MemWrite            0                       # Class of committed instruction. (Count)
system.cpu10.commitStats0.committedInstType::FloatMemRead            0                       # Class of committed instruction. (Count)
system.cpu10.commitStats0.committedInstType::FloatMemWrite            0                       # Class of committed instruction. (Count)
system.cpu10.commitStats0.committedInstType::IprAccess            0                       # Class of committed instruction. (Count)
system.cpu10.commitStats0.committedInstType::InstPrefetch            0                       # Class of committed instruction. (Count)
system.cpu10.commitStats0.committedInstType::VectorUnitStrideLoad            0                       # Class of committed instruction. (Count)
system.cpu10.commitStats0.committedInstType::VectorUnitStrideStore            0                       # Class of committed instruction. (Count)
system.cpu10.commitStats0.committedInstType::VectorUnitStrideMaskLoad            0                       # Class of committed instruction. (Count)
system.cpu10.commitStats0.committedInstType::VectorUnitStrideMaskStore            0                       # Class of committed instruction. (Count)
system.cpu10.commitStats0.committedInstType::VectorStridedLoad            0                       # Class of committed instruction. (Count)
system.cpu10.commitStats0.committedInstType::VectorStridedStore            0                       # Class of committed instruction. (Count)
system.cpu10.commitStats0.committedInstType::VectorIndexedLoad            0                       # Class of committed instruction. (Count)
system.cpu10.commitStats0.committedInstType::VectorIndexedStore            0                       # Class of committed instruction. (Count)
system.cpu10.commitStats0.committedInstType::VectorUnitStrideFaultOnlyFirstLoad            0                       # Class of committed instruction. (Count)
system.cpu10.commitStats0.committedInstType::VectorWholeRegisterLoad            0                       # Class of committed instruction. (Count)
system.cpu10.commitStats0.committedInstType::VectorWholeRegisterStore            0                       # Class of committed instruction. (Count)
system.cpu10.commitStats0.committedInstType::VectorIntegerArith            0                       # Class of committed instruction. (Count)
system.cpu10.commitStats0.committedInstType::VectorFloatArith            0                       # Class of committed instruction. (Count)
system.cpu10.commitStats0.committedInstType::VectorFloatConvert            0                       # Class of committed instruction. (Count)
system.cpu10.commitStats0.committedInstType::VectorIntegerReduce            0                       # Class of committed instruction. (Count)
system.cpu10.commitStats0.committedInstType::VectorFloatReduce            0                       # Class of committed instruction. (Count)
system.cpu10.commitStats0.committedInstType::VectorMisc            0                       # Class of committed instruction. (Count)
system.cpu10.commitStats0.committedInstType::VectorIntegerExtension            0                       # Class of committed instruction. (Count)
system.cpu10.commitStats0.committedInstType::VectorConfig            0                       # Class of committed instruction. (Count)
system.cpu10.commitStats0.committedInstType::total            0                       # Class of committed instruction. (Count)
system.cpu10.executeStats0.numInsts                 0                       # Number of executed instructions (Count)
system.cpu10.executeStats0.numNop                   0                       # Number of nop insts executed (Count)
system.cpu10.executeStats0.numBranches              0                       # Number of branches executed (Count)
system.cpu10.executeStats0.numLoadInsts             0                       # Number of load instructions executed (Count)
system.cpu10.executeStats0.numStoreInsts            0                       # Number of stores executed (Count)
system.cpu10.executeStats0.instRate               nan                       # Inst execution rate ((Count/Cycle))
system.cpu10.executeStats0.numFpRegWrites            0                       # Number of times the floating registers were written (Count)
system.cpu10.executeStats0.numMemRefs               0                       # Number of memory refs (Count)
system.cpu10.executeStats0.numVecAluAccesses            0                       # Number of vector alu accesses (Count)
system.cpu10.executeStats0.numDiscardedOps            0                       # Number of ops (including micro ops) which were discarded before commit (Count)
system.cpu10.fetchStats0.numInsts                   0                       # Number of instructions fetched (thread level) (Count)
system.cpu10.fetchStats0.numOps                     0                       # Number of ops (including micro ops) fetched (thread level) (Count)
system.cpu10.fetchStats0.fetchRate                nan                       # Number of inst fetches per cycle ((Count/Cycle))
system.cpu10.fetchStats0.branchRate               nan                       # Number of branch fetches per cycle (Ratio)
system.cpu10.fetchStats0.numFetchSuspends            0                       # Number of times Execute suspended instruction fetching (Count)
system.cpu10.interrupts.clk_domain.clock         8000                       # Clock period in ticks (Tick)
system.cpu10.mmu.dtb.rdAccesses                     0                       # TLB accesses on read requests (Count)
system.cpu10.mmu.dtb.wrAccesses                     0                       # TLB accesses on write requests (Count)
system.cpu10.mmu.dtb.rdMisses                       0                       # TLB misses on read requests (Count)
system.cpu10.mmu.dtb.wrMisses                       0                       # TLB misses on write requests (Count)
system.cpu10.mmu.dtb.walker.power_state.pwrStateResidencyTicks::UNDEFINED 20476658580001                       # Cumulative time (in ticks) in various power states (Tick)
system.cpu10.mmu.itb.rdAccesses                     0                       # TLB accesses on read requests (Count)
system.cpu10.mmu.itb.wrAccesses                     0                       # TLB accesses on write requests (Count)
system.cpu10.mmu.itb.rdMisses                       0                       # TLB misses on read requests (Count)
system.cpu10.mmu.itb.wrMisses                       0                       # TLB misses on write requests (Count)
system.cpu10.mmu.itb.walker.power_state.pwrStateResidencyTicks::UNDEFINED 20476658580001                       # Cumulative time (in ticks) in various power states (Tick)
system.cpu10.power_state.numTransitions             1                       # Number of power state transitions (Count)
system.cpu10.power_state.pwrStateResidencyTicks::ON 20210134613000                       # Cumulative time (in ticks) in various power states (Tick)
system.cpu10.power_state.pwrStateResidencyTicks::OFF 266523967001                       # Cumulative time (in ticks) in various power states (Tick)
system.cpu10.thread_0.numInsts                      0                       # Number of Instructions committed (Count)
system.cpu10.thread_0.numOps                        0                       # Number of Ops committed (Count)
system.cpu10.thread_0.numMemRefs                    0                       # Number of Memory References (Count)
system.cpu11.numCycles                              0                       # Number of cpu cycles simulated (Cycle)
system.cpu11.cpi                                  nan                       # CPI: cycles per instruction (core level) ((Cycle/Count))
system.cpu11.ipc                                  nan                       # IPC: instructions per cycle (core level) ((Count/Cycle))
system.cpu11.numWorkItemsStarted                    0                       # Number of work items this cpu started (Count)
system.cpu11.numWorkItemsCompleted                  0                       # Number of work items this cpu completed (Count)
system.cpu11.numVMExits                             0                       # total number of KVM exits (Count)
system.cpu11.numVMHalfEntries                       0                       # number of KVM entries to finalize pending operations (Count)
system.cpu11.numExitSignal                          0                       # exits due to signal delivery (Count)
system.cpu11.numMMIO                                0                       # number of VM exits due to memory mapped IO (Count)
system.cpu11.numCoalescedMMIO                       0                       # number of coalesced memory mapped IO requests (Count)
system.cpu11.numIO                                  0                       # number of VM exits due to legacy IO (Count)
system.cpu11.numHalt                                0                       # number of VM exits due to wait for interrupt instructions (Count)
system.cpu11.numInterrupts                          0                       # number of interrupts delivered (Count)
system.cpu11.numHypercalls                          0                       # number of hypercalls (Count)
system.cpu11.commitStats0.numOps                    0                       # Number of ops (including micro ops) committed (thread level) (Count)
system.cpu11.commitStats0.numInstsNotNOP            0                       # Number of instructions committed excluding NOPs or prefetches (Count)
system.cpu11.commitStats0.numOpsNotNOP              0                       # Number of Ops (including micro ops) Simulated (Count)
system.cpu11.commitStats0.cpi                     nan                       # CPI: cycles per instruction (thread level) ((Cycle/Count))
system.cpu11.commitStats0.ipc                     nan                       # IPC: instructions per cycle (thread level) ((Count/Cycle))
system.cpu11.commitStats0.numMemRefs                0                       # Number of memory references committed (Count)
system.cpu11.commitStats0.numFpInsts                0                       # Number of float instructions (Count)
system.cpu11.commitStats0.numIntInsts               0                       # Number of integer instructions (Count)
system.cpu11.commitStats0.numLoadInsts              0                       # Number of load instructions (Count)
system.cpu11.commitStats0.numStoreInsts             0                       # Number of store instructions (Count)
system.cpu11.commitStats0.numVecInsts               0                       # Number of vector instructions (Count)
system.cpu11.commitStats0.committedInstType::No_OpClass            0                       # Class of committed instruction. (Count)
system.cpu11.commitStats0.committedInstType::IntAlu            0                       # Class of committed instruction. (Count)
system.cpu11.commitStats0.committedInstType::IntMult            0                       # Class of committed instruction. (Count)
system.cpu11.commitStats0.committedInstType::IntDiv            0                       # Class of committed instruction. (Count)
system.cpu11.commitStats0.committedInstType::FloatAdd            0                       # Class of committed instruction. (Count)
system.cpu11.commitStats0.committedInstType::FloatCmp            0                       # Class of committed instruction. (Count)
system.cpu11.commitStats0.committedInstType::FloatCvt            0                       # Class of committed instruction. (Count)
system.cpu11.commitStats0.committedInstType::FloatMult            0                       # Class of committed instruction. (Count)
system.cpu11.commitStats0.committedInstType::FloatMultAcc            0                       # Class of committed instruction. (Count)
system.cpu11.commitStats0.committedInstType::FloatDiv            0                       # Class of committed instruction. (Count)
system.cpu11.commitStats0.committedInstType::FloatMisc            0                       # Class of committed instruction. (Count)
system.cpu11.commitStats0.committedInstType::FloatSqrt            0                       # Class of committed instruction. (Count)
system.cpu11.commitStats0.committedInstType::SimdAdd            0                       # Class of committed instruction. (Count)
system.cpu11.commitStats0.committedInstType::SimdAddAcc            0                       # Class of committed instruction. (Count)
system.cpu11.commitStats0.committedInstType::SimdAlu            0                       # Class of committed instruction. (Count)
system.cpu11.commitStats0.committedInstType::SimdCmp            0                       # Class of committed instruction. (Count)
system.cpu11.commitStats0.committedInstType::SimdCvt            0                       # Class of committed instruction. (Count)
system.cpu11.commitStats0.committedInstType::SimdMisc            0                       # Class of committed instruction. (Count)
system.cpu11.commitStats0.committedInstType::SimdMult            0                       # Class of committed instruction. (Count)
system.cpu11.commitStats0.committedInstType::SimdMultAcc            0                       # Class of committed instruction. (Count)
system.cpu11.commitStats0.committedInstType::SimdMatMultAcc            0                       # Class of committed instruction. (Count)
system.cpu11.commitStats0.committedInstType::SimdShift            0                       # Class of committed instruction. (Count)
system.cpu11.commitStats0.committedInstType::SimdShiftAcc            0                       # Class of committed instruction. (Count)
system.cpu11.commitStats0.committedInstType::SimdDiv            0                       # Class of committed instruction. (Count)
system.cpu11.commitStats0.committedInstType::SimdSqrt            0                       # Class of committed instruction. (Count)
system.cpu11.commitStats0.committedInstType::SimdFloatAdd            0                       # Class of committed instruction. (Count)
system.cpu11.commitStats0.committedInstType::SimdFloatAlu            0                       # Class of committed instruction. (Count)
system.cpu11.commitStats0.committedInstType::SimdFloatCmp            0                       # Class of committed instruction. (Count)
system.cpu11.commitStats0.committedInstType::SimdFloatCvt            0                       # Class of committed instruction. (Count)
system.cpu11.commitStats0.committedInstType::SimdFloatDiv            0                       # Class of committed instruction. (Count)
system.cpu11.commitStats0.committedInstType::SimdFloatMisc            0                       # Class of committed instruction. (Count)
system.cpu11.commitStats0.committedInstType::SimdFloatMult            0                       # Class of committed instruction. (Count)
system.cpu11.commitStats0.committedInstType::SimdFloatMultAcc            0                       # Class of committed instruction. (Count)
system.cpu11.commitStats0.committedInstType::SimdFloatMatMultAcc            0                       # Class of committed instruction. (Count)
system.cpu11.commitStats0.committedInstType::SimdFloatSqrt            0                       # Class of committed instruction. (Count)
system.cpu11.commitStats0.committedInstType::SimdReduceAdd            0                       # Class of committed instruction. (Count)
system.cpu11.commitStats0.committedInstType::SimdReduceAlu            0                       # Class of committed instruction. (Count)
system.cpu11.commitStats0.committedInstType::SimdReduceCmp            0                       # Class of committed instruction. (Count)
system.cpu11.commitStats0.committedInstType::SimdFloatReduceAdd            0                       # Class of committed instruction. (Count)
system.cpu11.commitStats0.committedInstType::SimdFloatReduceCmp            0                       # Class of committed instruction. (Count)
system.cpu11.commitStats0.committedInstType::SimdAes            0                       # Class of committed instruction. (Count)
system.cpu11.commitStats0.committedInstType::SimdAesMix            0                       # Class of committed instruction. (Count)
system.cpu11.commitStats0.committedInstType::SimdSha1Hash            0                       # Class of committed instruction. (Count)
system.cpu11.commitStats0.committedInstType::SimdSha1Hash2            0                       # Class of committed instruction. (Count)
system.cpu11.commitStats0.committedInstType::SimdSha256Hash            0                       # Class of committed instruction. (Count)
system.cpu11.commitStats0.committedInstType::SimdSha256Hash2            0                       # Class of committed instruction. (Count)
system.cpu11.commitStats0.committedInstType::SimdShaSigma2            0                       # Class of committed instruction. (Count)
system.cpu11.commitStats0.committedInstType::SimdShaSigma3            0                       # Class of committed instruction. (Count)
system.cpu11.commitStats0.committedInstType::SimdPredAlu            0                       # Class of committed instruction. (Count)
system.cpu11.commitStats0.committedInstType::Matrix            0                       # Class of committed instruction. (Count)
system.cpu11.commitStats0.committedInstType::MatrixMov            0                       # Class of committed instruction. (Count)
system.cpu11.commitStats0.committedInstType::MatrixOP            0                       # Class of committed instruction. (Count)
system.cpu11.commitStats0.committedInstType::MemRead            0                       # Class of committed instruction. (Count)
system.cpu11.commitStats0.committedInstType::MemWrite            0                       # Class of committed instruction. (Count)
system.cpu11.commitStats0.committedInstType::FloatMemRead            0                       # Class of committed instruction. (Count)
system.cpu11.commitStats0.committedInstType::FloatMemWrite            0                       # Class of committed instruction. (Count)
system.cpu11.commitStats0.committedInstType::IprAccess            0                       # Class of committed instruction. (Count)
system.cpu11.commitStats0.committedInstType::InstPrefetch            0                       # Class of committed instruction. (Count)
system.cpu11.commitStats0.committedInstType::VectorUnitStrideLoad            0                       # Class of committed instruction. (Count)
system.cpu11.commitStats0.committedInstType::VectorUnitStrideStore            0                       # Class of committed instruction. (Count)
system.cpu11.commitStats0.committedInstType::VectorUnitStrideMaskLoad            0                       # Class of committed instruction. (Count)
system.cpu11.commitStats0.committedInstType::VectorUnitStrideMaskStore            0                       # Class of committed instruction. (Count)
system.cpu11.commitStats0.committedInstType::VectorStridedLoad            0                       # Class of committed instruction. (Count)
system.cpu11.commitStats0.committedInstType::VectorStridedStore            0                       # Class of committed instruction. (Count)
system.cpu11.commitStats0.committedInstType::VectorIndexedLoad            0                       # Class of committed instruction. (Count)
system.cpu11.commitStats0.committedInstType::VectorIndexedStore            0                       # Class of committed instruction. (Count)
system.cpu11.commitStats0.committedInstType::VectorUnitStrideFaultOnlyFirstLoad            0                       # Class of committed instruction. (Count)
system.cpu11.commitStats0.committedInstType::VectorWholeRegisterLoad            0                       # Class of committed instruction. (Count)
system.cpu11.commitStats0.committedInstType::VectorWholeRegisterStore            0                       # Class of committed instruction. (Count)
system.cpu11.commitStats0.committedInstType::VectorIntegerArith            0                       # Class of committed instruction. (Count)
system.cpu11.commitStats0.committedInstType::VectorFloatArith            0                       # Class of committed instruction. (Count)
system.cpu11.commitStats0.committedInstType::VectorFloatConvert            0                       # Class of committed instruction. (Count)
system.cpu11.commitStats0.committedInstType::VectorIntegerReduce            0                       # Class of committed instruction. (Count)
system.cpu11.commitStats0.committedInstType::VectorFloatReduce            0                       # Class of committed instruction. (Count)
system.cpu11.commitStats0.committedInstType::VectorMisc            0                       # Class of committed instruction. (Count)
system.cpu11.commitStats0.committedInstType::VectorIntegerExtension            0                       # Class of committed instruction. (Count)
system.cpu11.commitStats0.committedInstType::VectorConfig            0                       # Class of committed instruction. (Count)
system.cpu11.commitStats0.committedInstType::total            0                       # Class of committed instruction. (Count)
system.cpu11.executeStats0.numInsts                 0                       # Number of executed instructions (Count)
system.cpu11.executeStats0.numNop                   0                       # Number of nop insts executed (Count)
system.cpu11.executeStats0.numBranches              0                       # Number of branches executed (Count)
system.cpu11.executeStats0.numLoadInsts             0                       # Number of load instructions executed (Count)
system.cpu11.executeStats0.numStoreInsts            0                       # Number of stores executed (Count)
system.cpu11.executeStats0.instRate               nan                       # Inst execution rate ((Count/Cycle))
system.cpu11.executeStats0.numFpRegWrites            0                       # Number of times the floating registers were written (Count)
system.cpu11.executeStats0.numMemRefs               0                       # Number of memory refs (Count)
system.cpu11.executeStats0.numVecAluAccesses            0                       # Number of vector alu accesses (Count)
system.cpu11.executeStats0.numDiscardedOps            0                       # Number of ops (including micro ops) which were discarded before commit (Count)
system.cpu11.fetchStats0.numInsts                   0                       # Number of instructions fetched (thread level) (Count)
system.cpu11.fetchStats0.numOps                     0                       # Number of ops (including micro ops) fetched (thread level) (Count)
system.cpu11.fetchStats0.fetchRate                nan                       # Number of inst fetches per cycle ((Count/Cycle))
system.cpu11.fetchStats0.branchRate               nan                       # Number of branch fetches per cycle (Ratio)
system.cpu11.fetchStats0.numFetchSuspends            0                       # Number of times Execute suspended instruction fetching (Count)
system.cpu11.interrupts.clk_domain.clock         8000                       # Clock period in ticks (Tick)
system.cpu11.mmu.dtb.rdAccesses                     0                       # TLB accesses on read requests (Count)
system.cpu11.mmu.dtb.wrAccesses                     0                       # TLB accesses on write requests (Count)
system.cpu11.mmu.dtb.rdMisses                       0                       # TLB misses on read requests (Count)
system.cpu11.mmu.dtb.wrMisses                       0                       # TLB misses on write requests (Count)
system.cpu11.mmu.dtb.walker.power_state.pwrStateResidencyTicks::UNDEFINED 20476658580001                       # Cumulative time (in ticks) in various power states (Tick)
system.cpu11.mmu.itb.rdAccesses                     0                       # TLB accesses on read requests (Count)
system.cpu11.mmu.itb.wrAccesses                     0                       # TLB accesses on write requests (Count)
system.cpu11.mmu.itb.rdMisses                       0                       # TLB misses on read requests (Count)
system.cpu11.mmu.itb.wrMisses                       0                       # TLB misses on write requests (Count)
system.cpu11.mmu.itb.walker.power_state.pwrStateResidencyTicks::UNDEFINED 20476658580001                       # Cumulative time (in ticks) in various power states (Tick)
system.cpu11.power_state.numTransitions             1                       # Number of power state transitions (Count)
system.cpu11.power_state.pwrStateResidencyTicks::ON 20210134613000                       # Cumulative time (in ticks) in various power states (Tick)
system.cpu11.power_state.pwrStateResidencyTicks::OFF 266523967001                       # Cumulative time (in ticks) in various power states (Tick)
system.cpu11.thread_0.numInsts                      0                       # Number of Instructions committed (Count)
system.cpu11.thread_0.numOps                        0                       # Number of Ops committed (Count)
system.cpu11.thread_0.numMemRefs                    0                       # Number of Memory References (Count)
system.cpu12.numCycles                              0                       # Number of cpu cycles simulated (Cycle)
system.cpu12.cpi                                  nan                       # CPI: cycles per instruction (core level) ((Cycle/Count))
system.cpu12.ipc                                  nan                       # IPC: instructions per cycle (core level) ((Count/Cycle))
system.cpu12.numWorkItemsStarted                    0                       # Number of work items this cpu started (Count)
system.cpu12.numWorkItemsCompleted                  0                       # Number of work items this cpu completed (Count)
system.cpu12.numVMExits                             0                       # total number of KVM exits (Count)
system.cpu12.numVMHalfEntries                       0                       # number of KVM entries to finalize pending operations (Count)
system.cpu12.numExitSignal                          0                       # exits due to signal delivery (Count)
system.cpu12.numMMIO                                0                       # number of VM exits due to memory mapped IO (Count)
system.cpu12.numCoalescedMMIO                       0                       # number of coalesced memory mapped IO requests (Count)
system.cpu12.numIO                                  0                       # number of VM exits due to legacy IO (Count)
system.cpu12.numHalt                                0                       # number of VM exits due to wait for interrupt instructions (Count)
system.cpu12.numInterrupts                          0                       # number of interrupts delivered (Count)
system.cpu12.numHypercalls                          0                       # number of hypercalls (Count)
system.cpu12.commitStats0.numOps                    0                       # Number of ops (including micro ops) committed (thread level) (Count)
system.cpu12.commitStats0.numInstsNotNOP            0                       # Number of instructions committed excluding NOPs or prefetches (Count)
system.cpu12.commitStats0.numOpsNotNOP              0                       # Number of Ops (including micro ops) Simulated (Count)
system.cpu12.commitStats0.cpi                     nan                       # CPI: cycles per instruction (thread level) ((Cycle/Count))
system.cpu12.commitStats0.ipc                     nan                       # IPC: instructions per cycle (thread level) ((Count/Cycle))
system.cpu12.commitStats0.numMemRefs                0                       # Number of memory references committed (Count)
system.cpu12.commitStats0.numFpInsts                0                       # Number of float instructions (Count)
system.cpu12.commitStats0.numIntInsts               0                       # Number of integer instructions (Count)
system.cpu12.commitStats0.numLoadInsts              0                       # Number of load instructions (Count)
system.cpu12.commitStats0.numStoreInsts             0                       # Number of store instructions (Count)
system.cpu12.commitStats0.numVecInsts               0                       # Number of vector instructions (Count)
system.cpu12.commitStats0.committedInstType::No_OpClass            0                       # Class of committed instruction. (Count)
system.cpu12.commitStats0.committedInstType::IntAlu            0                       # Class of committed instruction. (Count)
system.cpu12.commitStats0.committedInstType::IntMult            0                       # Class of committed instruction. (Count)
system.cpu12.commitStats0.committedInstType::IntDiv            0                       # Class of committed instruction. (Count)
system.cpu12.commitStats0.committedInstType::FloatAdd            0                       # Class of committed instruction. (Count)
system.cpu12.commitStats0.committedInstType::FloatCmp            0                       # Class of committed instruction. (Count)
system.cpu12.commitStats0.committedInstType::FloatCvt            0                       # Class of committed instruction. (Count)
system.cpu12.commitStats0.committedInstType::FloatMult            0                       # Class of committed instruction. (Count)
system.cpu12.commitStats0.committedInstType::FloatMultAcc            0                       # Class of committed instruction. (Count)
system.cpu12.commitStats0.committedInstType::FloatDiv            0                       # Class of committed instruction. (Count)
system.cpu12.commitStats0.committedInstType::FloatMisc            0                       # Class of committed instruction. (Count)
system.cpu12.commitStats0.committedInstType::FloatSqrt            0                       # Class of committed instruction. (Count)
system.cpu12.commitStats0.committedInstType::SimdAdd            0                       # Class of committed instruction. (Count)
system.cpu12.commitStats0.committedInstType::SimdAddAcc            0                       # Class of committed instruction. (Count)
system.cpu12.commitStats0.committedInstType::SimdAlu            0                       # Class of committed instruction. (Count)
system.cpu12.commitStats0.committedInstType::SimdCmp            0                       # Class of committed instruction. (Count)
system.cpu12.commitStats0.committedInstType::SimdCvt            0                       # Class of committed instruction. (Count)
system.cpu12.commitStats0.committedInstType::SimdMisc            0                       # Class of committed instruction. (Count)
system.cpu12.commitStats0.committedInstType::SimdMult            0                       # Class of committed instruction. (Count)
system.cpu12.commitStats0.committedInstType::SimdMultAcc            0                       # Class of committed instruction. (Count)
system.cpu12.commitStats0.committedInstType::SimdMatMultAcc            0                       # Class of committed instruction. (Count)
system.cpu12.commitStats0.committedInstType::SimdShift            0                       # Class of committed instruction. (Count)
system.cpu12.commitStats0.committedInstType::SimdShiftAcc            0                       # Class of committed instruction. (Count)
system.cpu12.commitStats0.committedInstType::SimdDiv            0                       # Class of committed instruction. (Count)
system.cpu12.commitStats0.committedInstType::SimdSqrt            0                       # Class of committed instruction. (Count)
system.cpu12.commitStats0.committedInstType::SimdFloatAdd            0                       # Class of committed instruction. (Count)
system.cpu12.commitStats0.committedInstType::SimdFloatAlu            0                       # Class of committed instruction. (Count)
system.cpu12.commitStats0.committedInstType::SimdFloatCmp            0                       # Class of committed instruction. (Count)
system.cpu12.commitStats0.committedInstType::SimdFloatCvt            0                       # Class of committed instruction. (Count)
system.cpu12.commitStats0.committedInstType::SimdFloatDiv            0                       # Class of committed instruction. (Count)
system.cpu12.commitStats0.committedInstType::SimdFloatMisc            0                       # Class of committed instruction. (Count)
system.cpu12.commitStats0.committedInstType::SimdFloatMult            0                       # Class of committed instruction. (Count)
[...]
system.ruby.network.routers112.sw_output_arbiter_activity     16264646                       (Unspecified)
system.ruby.network.routers113.buffer_reads     16081389                       (Unspecified)
system.ruby.network.routers113.buffer_writes     16081389                       (Unspecified)
system.ruby.network.routers113.crossbar_activity     16081389                       (Unspecified)
system.ruby.network.routers113.forwarded_packets      2995082                       (Unspecified)
system.ruby.network.routers113.generated_packets      1425442                       (Unspecified)
system.ruby.network.routers113.received_packets      1415809                       (Unspecified)
system.ruby.network.routers113.sw_input_arbiter_activity     16251161                       (Unspecified)
system.ruby.network.routers113.sw_output_arbiter_activity     16081389                       (Unspecified)
system.ruby.network.routers121.buffer_reads     20819580                       (Unspecified)
system.ruby.network.routers121.buffer_writes     20819580                       (Unspecified)
system.ruby.network.routers121.crossbar_activity     20819580                       (Unspecified)
system.ruby.network.routers121.forwarded_packets      4511051                       (Unspecified)
system.ruby.network.routers121.generated_packets      1519462                       (Unspecified)
system.ruby.network.routers121.received_packets      1514751                       (Unspecified)
system.ruby.network.routers121.sw_input_arbiter_activity     20997980                       (Unspecified)
system.ruby.network.routers121.sw_output_arbiter_activity     20819580                       (Unspecified)
system.ruby.network.routers122.buffer_reads     38489997                       (Unspecified)
system.ruby.network.routers122.buffer_writes     38489997                       (Unspecified)
system.ruby.network.routers122.crossbar_activity     38489997                       (Unspecified)
system.ruby.network.routers122.forwarded_packets      8275294                       (Unspecified)
system.ruby.network.routers122.generated_packets      3430165                       (Unspecified)
system.ruby.network.routers122.received_packets      2591798                       (Unspecified)
system.ruby.network.routers122.sw_input_arbiter_activity     39255005                       (Unspecified)
system.ruby.network.routers122.sw_output_arbiter_activity     38489997                       (Unspecified)
system.ruby.network.routers123.buffer_reads     24519875                       (Unspecified)
system.ruby.network.routers123.buffer_writes     24519875                       (Unspecified)
system.ruby.network.routers123.crossbar_activity     24519875                       (Unspecified)
system.ruby.network.routers123.forwarded_packets      5542054                       (Unspecified)
system.ruby.network.routers123.generated_packets      1653218                       (Unspecified)
system.ruby.network.routers123.received_packets      1663079                       (Unspecified)
system.ruby.network.routers123.sw_input_arbiter_activity     24909745                       (Unspecified)
system.ruby.network.routers123.sw_output_arbiter_activity     24519875                       (Unspecified)
system.ruby.network.routers131.buffer_reads     18228207                       (Unspecified)
system.ruby.network.routers131.buffer_writes     18228207                       (Unspecified)
system.ruby.network.routers131.crossbar_activity     18228207                       (Unspecified)
system.ruby.network.routers131.forwarded_packets      3718419                       (Unspecified)
system.ruby.network.routers131.generated_packets      1445797                       (Unspecified)
system.ruby.network.routers131.received_packets      1436055                       (Unspecified)
system.ruby.network.routers131.sw_input_arbiter_activity     18373868                       (Unspecified)
system.ruby.network.routers131.sw_output_arbiter_activity     18228207                       (Unspecified)
system.ruby.network.routers132.buffer_reads     22482279                       (Unspecified)
system.ruby.network.routers132.buffer_writes     22482279                       (Unspecified)
system.ruby.network.routers132.crossbar_activity     22482279                       (Unspecified)
system.ruby.network.routers132.forwarded_packets      5163016                       (Unspecified)
system.ruby.network.routers132.generated_packets      1467896                       (Unspecified)
system.ruby.network.routers132.received_packets      1462095                       (Unspecified)
system.ruby.network.routers132.sw_input_arbiter_activity     22735030                       (Unspecified)
system.ruby.network.routers132.sw_output_arbiter_activity     22482279                       (Unspecified)
system.ruby.network.routers133.buffer_reads     24359311                       (Unspecified)
system.ruby.network.routers133.buffer_writes     24359311                       (Unspecified)
system.ruby.network.routers133.crossbar_activity     24359311                       (Unspecified)
system.ruby.network.routers133.forwarded_packets      5799471                       (Unspecified)
system.ruby.network.routers133.generated_packets      1432091                       (Unspecified)
system.ruby.network.routers133.received_packets      1411685                       (Unspecified)
system.ruby.network.routers133.sw_input_arbiter_activity     25044688                       (Unspecified)
system.ruby.network.routers133.sw_output_arbiter_activity     24359311                       (Unspecified)
system.ruby.network.routers211.buffer_reads     32899604                       (Unspecified)
system.ruby.network.routers211.buffer_writes     32899604                       (Unspecified)
system.ruby.network.routers211.crossbar_activity     32899604                       (Unspecified)
system.ruby.network.routers211.forwarded_packets     10023735                       (Unspecified)
system.ruby.network.routers211.generated_packets       896801                       (Unspecified)
system.ruby.network.routers211.received_packets       981764                       (Unspecified)
system.ruby.network.routers211.sw_input_arbiter_activity     33472153                       (Unspecified)
system.ruby.network.routers211.sw_output_arbiter_activity     32899604                       (Unspecified)
system.ruby.network.routers212.buffer_reads     21475268                       (Unspecified)
system.ruby.network.routers212.buffer_writes     21475268                       (Unspecified)
system.ruby.network.routers212.crossbar_activity     21475268                       (Unspecified)
system.ruby.network.routers212.forwarded_packets      4871961                       (Unspecified)
system.ruby.network.routers212.generated_packets      1443006                       (Unspecified)
system.ruby.network.routers212.received_packets      1417297                       (Unspecified)
system.ruby.network.routers212.sw_input_arbiter_activity     21658823                       (Unspecified)
system.ruby.network.routers212.sw_output_arbiter_activity     21475268                       (Unspecified)
system.ruby.network.routers213.buffer_reads     21363373                       (Unspecified)
system.ruby.network.routers213.buffer_writes     21363373                       (Unspecified)
system.ruby.network.routers213.crossbar_activity     21363373                       (Unspecified)
system.ruby.network.routers213.forwarded_packets      4768858                       (Unspecified)
system.ruby.network.routers213.generated_packets      1434782                       (Unspecified)
system.ruby.network.routers213.received_packets      1411153                       (Unspecified)
system.ruby.network.routers213.sw_input_arbiter_activity     21718614                       (Unspecified)
system.ruby.network.routers213.sw_output_arbiter_activity     21363373                       (Unspecified)
system.ruby.network.routers221.buffer_reads     18011428                       (Unspecified)
system.ruby.network.routers221.buffer_writes     18011428                       (Unspecified)
system.ruby.network.routers221.crossbar_activity     18011428                       (Unspecified)
system.ruby.network.routers221.forwarded_packets      3417275                       (Unspecified)
system.ruby.network.routers221.generated_packets      1556743                       (Unspecified)
system.ruby.network.routers221.received_packets      1541242                       (Unspecified)
system.ruby.network.routers221.sw_input_arbiter_activity     18192861                       (Unspecified)
system.ruby.network.routers221.sw_output_arbiter_activity     18011428                       (Unspecified)
system.ruby.network.routers222.buffer_reads      8501534                       (Unspecified)
system.ruby.network.routers222.buffer_writes      8501534                       (Unspecified)
system.ruby.network.routers222.crossbar_activity      8501534                       (Unspecified)
system.ruby.network.routers222.forwarded_packets            0                       (Unspecified)
system.ruby.network.routers222.generated_packets      1516905                       (Unspecified)
system.ruby.network.routers222.received_packets      1516897                       (Unspecified)
system.ruby.network.routers222.sw_input_arbiter_activity      8513719                       (Unspecified)
system.ruby.network.routers222.sw_output_arbiter_activity      8501534                       (Unspecified)
system.ruby.network.routers223.buffer_reads     14796375                       (Unspecified)
system.ruby.network.routers223.buffer_writes     14796375                       (Unspecified)
system.ruby.network.routers223.crossbar_activity     14796375                       (Unspecified)
system.ruby.network.routers223.forwarded_packets      2184666                       (Unspecified)
system.ruby.network.routers223.generated_packets      1558701                       (Unspecified)
system.ruby.network.routers223.received_packets      1529224                       (Unspecified)
system.ruby.network.routers223.sw_input_arbiter_activity     14968735                       (Unspecified)
system.ruby.network.routers223.sw_output_arbiter_activity     14796375                       (Unspecified)
system.ruby.network.routers231.buffer_reads     20160955                       (Unspecified)
system.ruby.network.routers231.buffer_writes     20160955                       (Unspecified)
system.ruby.network.routers231.crossbar_activity     20160955                       (Unspecified)
system.ruby.network.routers231.forwarded_packets      3963063                       (Unspecified)
system.ruby.network.routers231.generated_packets      1607056                       (Unspecified)
system.ruby.network.routers231.received_packets      1603424                       (Unspecified)
system.ruby.network.routers231.sw_input_arbiter_activity     20375015                       (Unspecified)
system.ruby.network.routers231.sw_output_arbiter_activity     20160955                       (Unspecified)
system.ruby.network.routers232.buffer_reads     12240747                       (Unspecified)
system.ruby.network.routers232.buffer_writes     12240747                       (Unspecified)
system.ruby.network.routers232.crossbar_activity     12240747                       (Unspecified)
system.ruby.network.routers232.forwarded_packets      3170276                       (Unspecified)
system.ruby.network.routers232.generated_packets       597593                       (Unspecified)
system.ruby.network.routers232.received_packets       554534                       (Unspecified)
system.ruby.network.routers232.sw_input_arbiter_activity     12276370                       (Unspecified)
system.ruby.network.routers232.sw_output_arbiter_activity     12240747                       (Unspecified)
system.ruby.network.routers233.buffer_reads     19383677                       (Unspecified)
system.ruby.network.routers233.buffer_writes     19383677                       (Unspecified)
system.ruby.network.routers233.crossbar_activity     19383677                       (Unspecified)
system.ruby.network.routers233.forwarded_packets      5696270                       (Unspecified)
system.ruby.network.routers233.generated_packets       603888                       (Unspecified)
system.ruby.network.routers233.received_packets       558707                       (Unspecified)
system.ruby.network.routers233.sw_input_arbiter_activity     19719739                       (Unspecified)
system.ruby.network.routers233.sw_output_arbiter_activity     19383677                       (Unspecified)
system.ruby.network.routers311.buffer_reads     19923358                       (Unspecified)
system.ruby.network.routers311.buffer_writes     19923358                       (Unspecified)
system.ruby.network.routers311.crossbar_activity     19923358                       (Unspecified)
system.ruby.network.routers311.forwarded_packets      5915045                       (Unspecified)
system.ruby.network.routers311.generated_packets       587745                       (Unspecified)
system.ruby.network.routers311.received_packets       546408                       (Unspecified)
system.ruby.network.routers311.sw_input_arbiter_activity     19991873                       (Unspecified)
system.ruby.network.routers311.sw_output_arbiter_activity     19923358                       (Unspecified)
system.ruby.network.routers312.buffer_reads     10745603                       (Unspecified)
system.ruby.network.routers312.buffer_writes     10745603                       (Unspecified)
system.ruby.network.routers312.crossbar_activity     10745603                       (Unspecified)
system.ruby.network.routers312.forwarded_packets      3732518                       (Unspecified)
system.ruby.network.routers312.generated_packets        36722                       (Unspecified)
system.ruby.network.routers312.received_packets        33983                       (Unspecified)
system.ruby.network.routers312.sw_input_arbiter_activity     10755402                       (Unspecified)
system.ruby.network.routers312.sw_output_arbiter_activity     10745603                       (Unspecified)
system.ruby.network.routers313.buffer_reads      8318358                       (Unspecified)
system.ruby.network.routers313.buffer_writes      8318358                       (Unspecified)
system.ruby.network.routers313.crossbar_activity      8318358                       (Unspecified)
system.ruby.network.routers313.forwarded_packets      1831132                       (Unspecified)
system.ruby.network.routers313.generated_packets       583512                       (Unspecified)
system.ruby.network.routers313.received_packets       537062                       (Unspecified)
system.ruby.network.routers313.sw_input_arbiter_activity      8324105                       (Unspecified)
system.ruby.network.routers313.sw_output_arbiter_activity      8318358                       (Unspecified)
system.ruby.network.routers321.buffer_reads     12365785                       (Unspecified)
system.ruby.network.routers321.buffer_writes     12365785                       (Unspecified)
system.ruby.network.routers321.crossbar_activity     12365785                       (Unspecified)
system.ruby.network.routers321.forwarded_packets      3221365                       (Unspecified)
system.ruby.network.routers321.generated_packets       597873                       (Unspecified)
system.ruby.network.routers321.received_packets       553031                       (Unspecified)
system.ruby.network.routers321.sw_input_arbiter_activity     12396415                       (Unspecified)
system.ruby.network.routers321.sw_output_arbiter_activity     12365785                       (Unspecified)
system.ruby.network.routers322.buffer_reads     17991844                       (Unspecified)
system.ruby.network.routers322.buffer_writes     17991844                       (Unspecified)
system.ruby.network.routers322.crossbar_activity     17991844                       (Unspecified)
system.ruby.network.routers322.forwarded_packets      5180312                       (Unspecified)
system.ruby.network.routers322.generated_packets       621292                       (Unspecified)
system.ruby.network.routers322.received_packets       571416                       (Unspecified)
system.ruby.network.routers322.sw_input_arbiter_activity     18061278                       (Unspecified)
system.ruby.network.routers322.sw_output_arbiter_activity     17991844                       (Unspecified)
system.ruby.network.routers323.buffer_reads      7092561                       (Unspecified)
system.ruby.network.routers323.buffer_writes      7092561                       (Unspecified)
system.ruby.network.routers323.crossbar_activity      7092561                       (Unspecified)
system.ruby.network.routers323.forwarded_packets      1448820                       (Unspecified)
system.ruby.network.routers323.generated_packets       552846                       (Unspecified)
system.ruby.network.routers323.received_packets       511639                       (Unspecified)
system.ruby.network.routers323.sw_input_arbiter_activity      7096606                       (Unspecified)
system.ruby.network.routers323.sw_output_arbiter_activity      7092561                       (Unspecified)
system.ruby.network.routers331.buffer_reads      6259828                       (Unspecified)
system.ruby.network.routers331.buffer_writes      6259828                       (Unspecified)
system.ruby.network.routers331.crossbar_activity      6259828                       (Unspecified)
system.ruby.network.routers331.forwarded_packets      1104212                       (Unspecified)
system.ruby.network.routers331.generated_packets       581780                       (Unspecified)
system.ruby.network.routers331.received_packets       535440                       (Unspecified)
system.ruby.network.routers331.sw_input_arbiter_activity      6266617                       (Unspecified)
system.ruby.network.routers331.sw_output_arbiter_activity      6259828                       (Unspecified)
system.ruby.network.routers332.buffer_reads      5482910                       (Unspecified)
system.ruby.network.routers332.buffer_writes      5482910                       (Unspecified)
system.ruby.network.routers332.crossbar_activity      5482910                       (Unspecified)
system.ruby.network.routers332.forwarded_packets       873110                       (Unspecified)
system.ruby.network.routers332.generated_packets       556020                       (Unspecified)
system.ruby.network.routers332.received_packets       514516                       (Unspecified)
system.ruby.network.routers332.sw_input_arbiter_activity      5488882                       (Unspecified)
system.ruby.network.routers332.sw_output_arbiter_activity      5482910                       (Unspecified)
system.ruby.network.routers333.buffer_reads      3099713                       (Unspecified)
system.ruby.network.routers333.buffer_writes      3099713                       (Unspecified)
system.ruby.network.routers333.crossbar_activity      3099713                       (Unspecified)
system.ruby.network.routers333.forwarded_packets            0                       (Unspecified)
system.ruby.network.routers333.generated_packets       569894                       (Unspecified)
system.ruby.network.routers333.received_packets       528167                       (Unspecified)
system.ruby.network.routers333.sw_input_arbiter_activity      3101067                       (Unspecified)
system.ruby.network.routers333.sw_output_arbiter_activity      3099713                       (Unspecified)

---------- End Simulation Statistics   ----------
