
---------- Begin Simulation Statistics ----------
simSeconds                                   0.000009                       # Number of seconds simulated (Second)
simTicks                                      9000000                       # Number of ticks simulated (Tick)
finalTick                                    10000000                       # Number of ticks from beginning of simulation (restored from checkpoints and never reset) (Tick)
simFreq                                  1000000000000                       # The number of ticks per simulated second ((Tick/Second))
hostSeconds                                     52.90                       # Real time elapsed on the host (Second)
hostTickRate                                   170140                       # The number of ticks simulated per host second (ticks/s) ((Tick/Second))
hostMemory                                     760176                       # Number of bytes of host memory used (Byte)
system.clk_domain.clock                          1000                       # Clock period in ticks (Tick)
system.cpu0.power_state.pwrStateResidencyTicks::UNDEFINED     10000000                       # Cumulative time (in ticks) in various power states (Tick)
system.cpu1.power_state.pwrStateResidencyTicks::UNDEFINED     10000000                       # Cumulative time (in ticks) in various power states (Tick)
system.cpu10.power_state.pwrStateResidencyTicks::UNDEFINED     10000000                       # Cumulative time (in ticks) in various power states (Tick)
system.cpu11.power_state.pwrStateResidencyTicks::UNDEFINED     10000000                       # Cumulative time (in ticks) in various power states (Tick)
system.cpu12.power_state.pwrStateResidencyTicks::UNDEFINED     10000000                       # Cumulative time (in ticks) in various power states (Tick)
system.cpu13.power_state.pwrStateResidencyTicks::UNDEFINED     10000000                       # Cumulative time (in ticks) in various power states (Tick)
system.cpu14.power_state.pwrStateResidencyTicks::UNDEFINED     10000000                       # Cumulative time (in ticks) in various power states (Tick)
system.cpu15.power_state.pwrStateResidencyTicks::UNDEFINED     10000000                       # Cumulative time (in ticks) in various power states (Tick)
system.cpu16.power_state.pwrStateResidencyTicks::UNDEFINED     10000000                       # Cumulative time (in ticks) in various power states (Tick)
system.cpu17.power_state.pwrStateResidencyTicks::UNDEFINED     10000000                       # Cumulative time (in ticks) in various power states (Tick)
system.cpu18.power_state.pwrStateResidencyTicks::UNDEFINED     10000000                       # Cumulative time (in ticks) in various power states (Tick)
system.cpu19.power_state.pwrStateResidencyTicks::UNDEFINED     10000000                       # Cumulative time (in ticks) in various power states (Tick)
system.cpu2.power_state.pwrStateResidencyTicks::UNDEFINED     10000000                       # Cumulative time (in ticks) in various power states (Tick)
system.cpu20.power_state.pwrStateResidencyTicks::UNDEFINED     10000000                       # Cumulative time (in ticks) in various power states (Tick)
system.cpu21.power_state.pwrStateResidencyTicks::UNDEFINED     10000000                       # Cumulative time (in ticks) in various power states (Tick)
system.cpu22.power_state.pwrStateResidencyTicks::UNDEFINED     10000000                       # Cumulative time (in ticks) in various power states (Tick)
system.cpu23.power_state.pwrStateResidencyTicks::UNDEFINED     10000000                       # Cumulative time (in ticks) in various power states (Tick)
system.cpu24.power_state.pwrStateResidencyTicks::UNDEFINED     10000000                       # Cumulative time (in ticks) in various power states (Tick)
system.cpu25.power_state.pwrStateResidencyTicks::UNDEFINED     10000000                       # Cumulative time (in ticks) in various power states (Tick)
system.cpu26.power_state.pwrStateResidencyTicks::UNDEFINED     10000000                       # Cumulative time (in ticks) in various power states (Tick)
system.cpu3.power_state.pwrStateResidencyTicks::UNDEFINED     10000000                       # Cumulative time (in ticks) in various power states (Tick)
system.cpu4.power_state.pwrStateResidencyTicks::UNDEFINED     10000000                       # Cumulative time (in ticks) in various power states (Tick)
system.cpu5.power_state.pwrStateResidencyTicks::UNDEFINED     10000000                       # Cumulative time (in ticks) in various power states (Tick)
system.cpu6.power_state.pwrStateResidencyTicks::UNDEFINED     10000000                       # Cumulative time (in ticks) in various power states (Tick)
system.cpu7.power_state.pwrStateResidencyTicks::UNDEFINED     10000000                       # Cumulative time (in ticks) in various power states (Tick)
system.cpu8.power_state.pwrStateResidencyTicks::UNDEFINED     10000000                       # Cumulative time (in ticks) in various power states (Tick)
system.cpu9.power_state.pwrStateResidencyTicks::UNDEFINED     10000000                       # Cumulative time (in ticks) in various power states (Tick)
system.mem_ctrls0.priorityMinLatency     0.000000000000                       # per QoS priority minimum request to response latency (Second)
system.mem_ctrls0.priorityMaxLatency     0.000000000000                       # per QoS priority maximum request to response latency (Second)
system.mem_ctrls0.numReadWriteTurnArounds            0                       # Number of turnarounds from READ to WRITE (Count)
system.mem_ctrls0.numWriteReadTurnArounds            0                       # Number of turnarounds from WRITE to READ (Count)
system.mem_ctrls0.numStayReadState                  2                       # Number of times bus staying in READ state (Count)
system.mem_ctrls0.numStayWriteState                 0                       # Number of times bus staying in WRITE state (Count)
system.mem_ctrls0.readReqs                          0                       # Number of read requests accepted (Count)
system.mem_ctrls0.writeReqs                         0                       # Number of write requests accepted (Count)
system.mem_ctrls0.readBursts                        0                       # Number of controller read bursts, including those serviced by the write queue (Count)
system.mem_ctrls0.writeBursts                       0                       # Number of controller write bursts, including those merged in the write queue (Count)
system.mem_ctrls0.servicedByWrQ                     0                       # Number of controller read bursts serviced by the write queue (Count)
system.mem_ctrls0.mergedWrBursts                    0                       # Number of controller write bursts merged with an existing one (Count)
system.mem_ctrls0.neitherReadNorWriteReqs            0                       # Number of requests that are neither read nor write (Count)
system.mem_ctrls0.avgRdQLen                      0.00                       # Average read queue length when enqueuing ((Count/Tick))
system.mem_ctrls0.avgWrQLen                      0.00                       # Average write queue length when enqueuing ((Count/Tick))
system.mem_ctrls0.numRdRetry                        0                       # Number of times read queue was full causing retry (Count)
system.mem_ctrls0.numWrRetry                        0                       # Number of times write queue was full causing retry (Count)
system.mem_ctrls0.readPktSize::0                    0                       # Read request sizes (log2) (Count)
system.mem_ctrls0.readPktSize::1                    0                       # Read request sizes (log2) (Count)
system.mem_ctrls0.readPktSize::2                    0                       # Read request sizes (log2) (Count)
system.mem_ctrls0.readPktSize::3                    0                       # Read request sizes (log2) (Count)
system.mem_ctrls0.readPktSize::4                    0                       # Read request sizes (log2) (Count)
system.mem_ctrls0.readPktSize::5                    0                       # Read request sizes (log2) (Count)
system.mem_ctrls0.readPktSize::6                    0                       # Read request sizes (log2) (Count)
system.mem_ctrls0.writePktSize::0                   0                       # Write request sizes (log2) (Count)
system.mem_ctrls0.writePktSize::1                   0                       # Write request sizes (log2) (Count)
system.mem_ctrls0.writePktSize::2                   0                       # Write request sizes (log2) (Count)
system.mem_ctrls0.writePktSize::3                   0                       # Write request sizes (log2) (Count)
system.mem_ctrls0.writePktSize::4                   0                       # Write request sizes (log2) (Count)
system.mem_ctrls0.writePktSize::5                   0                       # Write request sizes (log2) (Count)
system.mem_ctrls0.writePktSize::6                   0                       # Write request sizes (log2) (Count)
system.mem_ctrls0.rdQLenPdf::0                      0                       # What read queue length does an incoming req see (Count)
system.mem_ctrls0.rdQLenPdf::1                      0                       # What read queue length does an incoming req see (Count)
system.mem_ctrls0.rdQLenPdf::2                      0                       # What read queue length does an incoming req see (Count)
system.mem_ctrls0.rdQLenPdf::3                      0                       # What read queue length does an incoming req see (Count)
system.mem_ctrls0.rdQLenPdf::4                      0                       # What read queue length does an incoming req see (Count)
system.mem_ctrls0.rdQLenPdf::5                      0                       # What read queue length does an incoming req see (Count)
system.mem_ctrls0.rdQLenPdf::6                      0                       # What read queue length does an incoming req see (Count)
system.mem_ctrls0.rdQLenPdf::7                      0                       # What read queue length does an incoming req see (Count)
system.mem_ctrls0.rdQLenPdf::8                      0                       # What read queue length does an incoming req see (Count)
system.mem_ctrls0.rdQLenPdf::9                      0                       # What read queue length does an incoming req see (Count)
system.mem_ctrls0.rdQLenPdf::10                     0                       # What read queue length does an incoming req see (Count)
system.mem_ctrls0.rdQLenPdf::11                     0                       # What read queue length does an incoming req see (Count)
system.mem_ctrls0.rdQLenPdf::12                     0                       # What read queue length does an incoming req see (Count)
system.mem_ctrls0.rdQLenPdf::13                     0                       # What read queue length does an incoming req see (Count)
system.mem_ctrls0.rdQLenPdf::14                     0                       # What read queue length does an incoming req see (Count)
system.mem_ctrls0.rdQLenPdf::15                     0                       # What read queue length does an incoming req see (Count)
system.mem_ctrls0.rdQLenPdf::16                     0                       # What read queue length does an incoming req see (Count)
system.mem_ctrls0.rdQLenPdf::17                     0                       # What read queue length does an incoming req see (Count)
system.mem_ctrls0.rdQLenPdf::18                     0                       # What read queue length does an incoming req see (Count)
system.mem_ctrls0.rdQLenPdf::19                     0                       # What read queue length does an incoming req see (Count)
system.mem_ctrls0.rdQLenPdf::20                     0                       # What read queue length does an incoming req see (Count)
system.mem_ctrls0.rdQLenPdf::21                     0                       # What read queue length does an incoming req see (Count)
system.mem_ctrls0.rdQLenPdf::22                     0                       # What read queue length does an incoming req see (Count)
system.mem_ctrls0.rdQLenPdf::23                     0                       # What read queue length does an incoming req see (Count)
system.mem_ctrls0.rdQLenPdf::24                     0                       # What read queue length does an incoming req see (Count)
system.mem_ctrls0.rdQLenPdf::25                     0                       # What read queue length does an incoming req see (Count)
system.mem_ctrls0.rdQLenPdf::26                     0                       # What read queue length does an incoming req see (Count)
system.mem_ctrls0.rdQLenPdf::27                     0                       # What read queue length does an incoming req see (Count)
system.mem_ctrls0.rdQLenPdf::28                     0                       # What read queue length does an incoming req see (Count)
system.mem_ctrls0.rdQLenPdf::29                     0                       # What read queue length does an incoming req see (Count)
system.mem_ctrls0.rdQLenPdf::30                     0                       # What read queue length does an incoming req see (Count)
system.mem_ctrls0.rdQLenPdf::31                     0                       # What read queue length does an incoming req see (Count)
system.mem_ctrls0.wrQLenPdf::0                      0                       # What write queue length does an incoming req see (Count)
system.mem_ctrls0.wrQLenPdf::1                      0                       # What write queue length does an incoming req see (Count)
system.mem_ctrls0.wrQLenPdf::2                      0                       # What write queue length does an incoming req see (Count)
system.mem_ctrls0.wrQLenPdf::3                      0                       # What write queue length does an incoming req see (Count)
system.mem_ctrls0.wrQLenPdf::4                      0                       # What write queue length does an incoming req see (Count)
system.mem_ctrls0.wrQLenPdf::5                      0                       # What write queue length does an incoming req see (Count)
system.mem_ctrls0.wrQLenPdf::6                      0                       # What write queue length does an incoming req see (Count)
system.mem_ctrls0.wrQLenPdf::7                      0                       # What write queue length does an incoming req see (Count)
system.mem_ctrls0.wrQLenPdf::8                      0                       # What write queue length does an incoming req see (Count)
system.mem_ctrls0.wrQLenPdf::9                      0                       # What write queue length does an incoming req see (Count)
system.mem_ctrls0.wrQLenPdf::10                     0                       # What write queue length does an incoming req see (Count)
system.mem_ctrls0.wrQLenPdf::11                     0                       # What write queue length does an incoming req see (Count)
system.mem_ctrls0.wrQLenPdf::12                     0                       # What write queue length does an incoming req see (Count)
system.mem_ctrls0.wrQLenPdf::13                     0                       # What write queue length does an incoming req see (Count)
system.mem_ctrls0.wrQLenPdf::14                     0                       # What write queue length does an incoming req see (Count)
system.mem_ctrls0.wrQLenPdf::15                     0                       # What write queue length does an incoming req see (Count)
system.mem_ctrls0.wrQLenPdf::16                     0                       # What write queue length does an incoming req see (Count)
system.mem_ctrls0.wrQLenPdf::17                     0                       # What write queue length does an incoming req see (Count)
system.mem_ctrls0.wrQLenPdf::18                     0                       # What write queue length does an incoming req see (Count)
system.mem_ctrls0.wrQLenPdf::19                     0                       # What write queue length does an incoming req see (Count)
system.mem_ctrls0.wrQLenPdf::20                     0                       # What write queue length does an incoming req see (Count)
system.mem_ctrls0.wrQLenPdf::21                     0                       # What write queue length does an incoming req see (Count)
system.mem_ctrls0.wrQLenPdf::22                     0                       # What write queue length does an incoming req see (Count)
system.mem_ctrls0.wrQLenPdf::23                     0                       # What write queue length does an incoming req see (Count)
system.mem_ctrls0.wrQLenPdf::24                     0                       # What write queue length does an incoming req see (Count)
system.mem_ctrls0.wrQLenPdf::25                     0                       # What write queue length does an incoming req see (Count)
system.mem_ctrls0.wrQLenPdf::26                     0                       # What write queue length does an incoming req see (Count)
system.mem_ctrls0.wrQLenPdf::27                     0                       # What write queue length does an incoming req see (Count)
system.mem_ctrls0.wrQLenPdf::28                     0                       # What write queue length does an incoming req see (Count)
system.mem_ctrls0.wrQLenPdf::29                     0                       # What write queue length does an incoming req see (Count)
system.mem_ctrls0.wrQLenPdf::30                     0                       # What write queue length does an incoming req see (Count)
system.mem_ctrls0.wrQLenPdf::31                     0                       # What write queue length does an incoming req see (Count)
system.mem_ctrls0.wrQLenPdf::32                     0                       # What write queue length does an incoming req see (Count)
system.mem_ctrls0.wrQLenPdf::33                     0                       # What write queue length does an incoming req see (Count)
system.mem_ctrls0.wrQLenPdf::34                     0                       # What write queue length does an incoming req see (Count)
system.mem_ctrls0.wrQLenPdf::35                     0                       # What write queue length does an incoming req see (Count)
system.mem_ctrls0.wrQLenPdf::36                     0                       # What write queue length does an incoming req see (Count)
system.mem_ctrls0.wrQLenPdf::37                     0                       # What write queue length does an incoming req see (Count)
system.mem_ctrls0.wrQLenPdf::38                     0                       # What write queue length does an incoming req see (Count)
system.mem_ctrls0.wrQLenPdf::39                     0                       # What write queue length does an incoming req see (Count)
system.mem_ctrls0.wrQLenPdf::40                     0                       # What write queue length does an incoming req see (Count)
system.mem_ctrls0.wrQLenPdf::41                     0                       # What write queue length does an incoming req see (Count)
system.mem_ctrls0.wrQLenPdf::42                     0                       # What write queue length does an incoming req see (Count)
system.mem_ctrls0.wrQLenPdf::43                     0                       # What write queue length does an incoming req see (Count)
system.mem_ctrls0.wrQLenPdf::44                     0                       # What write queue length does an incoming req see (Count)
system.mem_ctrls0.wrQLenPdf::45                     0                       # What write queue length does an incoming req see (Count)
system.mem_ctrls0.wrQLenPdf::46                     0                       # What write queue length does an incoming req see (Count)
system.mem_ctrls0.wrQLenPdf::47                     0                       # What write queue length does an incoming req see (Count)
system.mem_ctrls0.wrQLenPdf::48                     0                       # What write queue length does an incoming req see (Count)
system.mem_ctrls0.wrQLenPdf::49                     0                       # What write queue length does an incoming req see (Count)
system.mem_ctrls0.wrQLenPdf::50                     0                       # What write queue length does an incoming req see (Count)
system.mem_ctrls0.wrQLenPdf::51                     0                       # What write queue length does an incoming req see (Count)
system.mem_ctrls0.wrQLenPdf::52                     0                       # What write queue length does an incoming req see (Count)
system.mem_ctrls0.wrQLenPdf::53                     0                       # What write queue length does an incoming req see (Count)
system.mem_ctrls0.wrQLenPdf::54                     0                       # What write queue length does an incoming req see (Count)
system.mem_ctrls0.wrQLenPdf::55                     0                       # What write queue length does an incoming req see (Count)
system.mem_ctrls0.wrQLenPdf::56                     0                       # What write queue length does an incoming req see (Count)
system.mem_ctrls0.wrQLenPdf::57                     0                       # What write queue length does an incoming req see (Count)
system.mem_ctrls0.wrQLenPdf::58                     0                       # What write queue length does an incoming req see (Count)
system.mem_ctrls0.wrQLenPdf::59                     0                       # What write queue length does an incoming req see (Count)
system.mem_ctrls0.wrQLenPdf::60                     0                       # What write queue length does an incoming req see (Count)
system.mem_ctrls0.wrQLenPdf::61                     0                       # What write queue length does an incoming req see (Count)
system.mem_ctrls0.wrQLenPdf::62                     0                       # What write queue length does an incoming req see (Count)
system.mem_ctrls0.wrQLenPdf::63                     0                       # What write queue length does an incoming req see (Count)
system.mem_ctrls0.bytesReadWrQ                      0                       # Total number of bytes read from write queue (Byte)
system.mem_ctrls0.bytesReadSys                      0                       # Total read bytes from the system interface side (Byte)
system.mem_ctrls0.bytesWrittenSys                   0                       # Total written bytes from the system interface side (Byte)
system.mem_ctrls0.avgRdBWSys               0.00000000                       # Average system read bandwidth in Byte/s ((Byte/Second))
system.mem_ctrls0.avgWrBWSys               0.00000000                       # Average system write bandwidth in Byte/s ((Byte/Second))
system.mem_ctrls0.totGap                            0                       # Total gap between requests (Tick)
system.mem_ctrls0.avgGap                          nan                       # Average gap between requests ((Tick/Count))
system.mem_ctrls0.dram.readBursts                   0                       # Number of DRAM read bursts (Count)
system.mem_ctrls0.dram.writeBursts                  0                       # Number of DRAM write bursts (Count)
system.mem_ctrls0.dram.perBankRdBursts::0            0                       # Per bank write bursts (Count)
system.mem_ctrls0.dram.perBankRdBursts::1            0                       # Per bank write bursts (Count)
system.mem_ctrls0.dram.perBankRdBursts::2            0                       # Per bank write bursts (Count)
system.mem_ctrls0.dram.perBankRdBursts::3            0                       # Per bank write bursts (Count)
system.mem_ctrls0.dram.perBankRdBursts::4            0                       # Per bank write bursts (Count)
system.mem_ctrls0.dram.perBankRdBursts::5            0                       # Per bank write bursts (Count)
system.mem_ctrls0.dram.perBankRdBursts::6            0                       # Per bank write bursts (Count)
system.mem_ctrls0.dram.perBankRdBursts::7            0                       # Per bank write bursts (Count)
system.mem_ctrls0.dram.perBankRdBursts::8            0                       # Per bank write bursts (Count)
system.mem_ctrls0.dram.perBankRdBursts::9            0                       # Per bank write bursts (Count)
system.mem_ctrls0.dram.perBankRdBursts::10            0                       # Per bank write bursts (Count)
system.mem_ctrls0.dram.perBankRdBursts::11            0                       # Per bank write bursts (Count)
system.mem_ctrls0.dram.perBankRdBursts::12            0                       # Per bank write bursts (Count)
system.mem_ctrls0.dram.perBankRdBursts::13            0                       # Per bank write bursts (Count)
system.mem_ctrls0.dram.perBankRdBursts::14            0                       # Per bank write bursts (Count)
system.mem_ctrls0.dram.perBankRdBursts::15            0                       # Per bank write bursts (Count)
system.mem_ctrls0.dram.perBankWrBursts::0            0                       # Per bank write bursts (Count)
system.mem_ctrls0.dram.perBankWrBursts::1            0                       # Per bank write bursts (Count)
system.mem_ctrls0.dram.perBankWrBursts::2            0                       # Per bank write bursts (Count)
system.mem_ctrls0.dram.perBankWrBursts::3            0                       # Per bank write bursts (Count)
system.mem_ctrls0.dram.perBankWrBursts::4            0                       # Per bank write bursts (Count)
system.mem_ctrls0.dram.perBankWrBursts::5            0                       # Per bank write bursts (Count)
system.mem_ctrls0.dram.perBankWrBursts::6            0                       # Per bank write bursts (Count)
system.mem_ctrls0.dram.perBankWrBursts::7            0                       # Per bank write bursts (Count)
system.mem_ctrls0.dram.perBankWrBursts::8            0                       # Per bank write bursts (Count)
system.mem_ctrls0.dram.perBankWrBursts::9            0                       # Per bank write bursts (Count)
system.mem_ctrls0.dram.perBankWrBursts::10            0                       # Per bank write bursts (Count)
system.mem_ctrls0.dram.perBankWrBursts::11            0                       # Per bank write bursts (Count)
system.mem_ctrls0.dram.perBankWrBursts::12            0                       # Per bank write bursts (Count)
system.mem_ctrls0.dram.perBankWrBursts::13            0                       # Per bank write bursts (Count)
system.mem_ctrls0.dram.perBankWrBursts::14            0                       # Per bank write bursts (Count)
system.mem_ctrls0.dram.perBankWrBursts::15            0                       # Per bank write bursts (Count)
system.mem_ctrls0.dram.totQLat                      0                       # Total ticks spent queuing (Tick)
system.mem_ctrls0.dram.totBusLat                    0                       # Total ticks spent in databus transfers (Tick)
system.mem_ctrls0.dram.totMemAccLat                 0                       # Total ticks spent from burst creation until serviced by the DRAM (Tick)
system.mem_ctrls0.dram.avgQLat                    nan                       # Average queueing delay per DRAM burst ((Tick/Count))
system.mem_ctrls0.dram.avgBusLat                  nan                       # Average bus latency per DRAM burst ((Tick/Count))
system.mem_ctrls0.dram.avgMemAccLat               nan                       # Average memory access latency per DRAM burst ((Tick/Count))
system.mem_ctrls0.dram.readRowHits                  0                       # Number of row buffer hits during reads (Count)
system.mem_ctrls0.dram.writeRowHits                 0                       # Number of row buffer hits during writes (Count)
system.mem_ctrls0.dram.readRowHitRate             nan                       # Row buffer hit rate for reads (Ratio)
system.mem_ctrls0.dram.writeRowHitRate            nan                       # Row buffer hit rate for writes (Ratio)
system.mem_ctrls0.dram.bytesRead                    0                       # Total bytes read (Byte)
system.mem_ctrls0.dram.bytesWritten                 0                       # Total bytes written (Byte)
system.mem_ctrls0.dram.avgRdBW                      0                       # Average DRAM read bandwidth in MiBytes/s ((Byte/Second))
system.mem_ctrls0.dram.avgWrBW                      0                       # Average DRAM write bandwidth in MiBytes/s ((Byte/Second))
system.mem_ctrls0.dram.peakBW                12800.00                       # Theoretical peak bandwidth in MiByte/s ((Byte/Second))
system.mem_ctrls0.dram.busUtil                   0.00                       # Data bus utilization in percentage (Ratio)
system.mem_ctrls0.dram.busUtilRead               0.00                       # Data bus utilization in percentage for reads (Ratio)
system.mem_ctrls0.dram.busUtilWrite              0.00                       # Data bus utilization in percentage for writes (Ratio)
system.mem_ctrls0.dram.pageHitRate                nan                       # Row buffer hit rate, read and write combined (Ratio)
system.mem_ctrls0.dram.power_state.pwrStateResidencyTicks::UNDEFINED     10000000                       # Cumulative time (in ticks) in various power states (Tick)
system.mem_ctrls0.dram.rank0.actEnergy              0                       # Energy for activate commands per rank (pJ) (Joule)
system.mem_ctrls0.dram.rank0.preEnergy              0                       # Energy for precharge commands per rank (pJ) (Joule)
system.mem_ctrls0.dram.rank0.readEnergy             0                       # Energy for read commands per rank (pJ) (Joule)
system.mem_ctrls0.dram.rank0.writeEnergy            0                       # Energy for write commands per rank (pJ) (Joule)
system.mem_ctrls0.dram.rank0.refreshEnergy 614640.000000                       # Energy for refresh commands per rank (pJ) (Joule)
system.mem_ctrls0.dram.rank0.actBackEnergy       112290                       # Energy for active background per rank (pJ) (Joule)
system.mem_ctrls0.dram.rank0.preBackEnergy      3361440                       # Energy for precharge background per rank (pJ) (Joule)
system.mem_ctrls0.dram.rank0.actPowerDownEnergy            0                       # Energy for active power-down per rank (pJ) (Joule)
system.mem_ctrls0.dram.rank0.prePowerDownEnergy            0                       # Energy for precharge power-down per rank (pJ) (Joule)
system.mem_ctrls0.dram.rank0.selfRefreshEnergy            0                       # Energy for self refresh per rank (pJ) (Joule)
system.mem_ctrls0.dram.rank0.totalEnergy      4088370                       # Total energy per rank (pJ) (Joule)
system.mem_ctrls0.dram.rank0.averagePower   454.263333                       # Core power per rank (mW) (Watt)
system.mem_ctrls0.dram.rank0.totalIdleTime            0                       # Total Idle time Per DRAM Rank (Tick)
system.mem_ctrls0.dram.rank0.pwrStateTime::IDLE      9740000                       # Time in different power states (Tick)
system.mem_ctrls0.dram.rank0.pwrStateTime::REF       260000                       # Time in different power states (Tick)
system.mem_ctrls0.dram.rank0.pwrStateTime::SREF            0                       # Time in different power states (Tick)
system.mem_ctrls0.dram.rank0.pwrStateTime::PRE_PDN            0                       # Time in different power states (Tick)
system.mem_ctrls0.dram.rank0.pwrStateTime::ACT            0                       # Time in different power states (Tick)
system.mem_ctrls0.dram.rank0.pwrStateTime::ACT_PDN            0                       # Time in different power states (Tick)
system.mem_ctrls0.dram.rank1.actEnergy              0                       # Energy for activate commands per rank (pJ) (Joule)
system.mem_ctrls0.dram.rank1.preEnergy              0                       # Energy for precharge commands per rank (pJ) (Joule)
system.mem_ctrls0.dram.rank1.readEnergy             0                       # Energy for read commands per rank (pJ) (Joule)
system.mem_ctrls0.dram.rank1.writeEnergy            0                       # Energy for write commands per rank (pJ) (Joule)
system.mem_ctrls0.dram.rank1.refreshEnergy 614640.000000                       # Energy for refresh commands per rank (pJ) (Joule)
system.mem_ctrls0.dram.rank1.actBackEnergy       112290                       # Energy for active background per rank (pJ) (Joule)
system.mem_ctrls0.dram.rank1.preBackEnergy      3361440                       # Energy for precharge background per rank (pJ) (Joule)
system.mem_ctrls0.dram.rank1.actPowerDownEnergy            0                       # Energy for active power-down per rank (pJ) (Joule)
system.mem_ctrls0.dram.rank1.prePowerDownEnergy            0                       # Energy for precharge power-down per rank (pJ) (Joule)
system.mem_ctrls0.dram.rank1.selfRefreshEnergy            0                       # Energy for self refresh per rank (pJ) (Joule)
system.mem_ctrls0.dram.rank1.totalEnergy      4088370                       # Total energy per rank (pJ) (Joule)
system.mem_ctrls0.dram.rank1.averagePower   454.263333                       # Core power per rank (mW) (Watt)
system.mem_ctrls0.dram.rank1.totalIdleTime            0                       # Total Idle time Per DRAM Rank (Tick)
system.mem_ctrls0.dram.rank1.pwrStateTime::IDLE      9740000                       # Time in different power states (Tick)
system.mem_ctrls0.dram.rank1.pwrStateTime::REF       260000                       # Time in different power states (Tick)
system.mem_ctrls0.dram.rank1.pwrStateTime::SREF            0                       # Time in different power states (Tick)
system.mem_ctrls0.dram.rank1.pwrStateTime::PRE_PDN            0                       # Time in different power states (Tick)
system.mem_ctrls0.dram.rank1.pwrStateTime::ACT            0                       # Time in different power states (Tick)
system.mem_ctrls0.dram.rank1.pwrStateTime::ACT_PDN            0                       # Time in different power states (Tick)
system.mem_ctrls0.power_state.pwrStateResidencyTicks::UNDEFINED     10000000                       # Cumulative time (in ticks) in various power states (Tick)
system.mem_ctrls1.priorityMinLatency     0.000000000000                       # per QoS priority minimum request to response latency (Second)
system.mem_ctrls1.priorityMaxLatency     0.000000000000                       # per QoS priority maximum request to response latency (Second)
system.mem_ctrls1.numReadWriteTurnArounds            0                       # Number of turnarounds from READ to WRITE (Count)
system.mem_ctrls1.numWriteReadTurnArounds            0                       # Number of turnarounds from WRITE to READ (Count)
system.mem_ctrls1.numStayReadState                  2                       # Number of times bus staying in READ state (Count)
system.mem_ctrls1.numStayWriteState                 0                       # Number of times bus staying in WRITE state (Count)
system.mem_ctrls1.readReqs                          0                       # Number of read requests accepted (Count)
system.mem_ctrls1.writeReqs                         0                       # Number of write requests accepted (Count)
system.mem_ctrls1.readBursts                        0                       # Number of controller read bursts, including those serviced by the write queue (Count)
system.mem_ctrls1.writeBursts                       0                       # Number of controller write bursts, including those merged in the write queue (Count)
system.mem_ctrls1.servicedByWrQ                     0                       # Number of controller read bursts serviced by the write queue (Count)
system.mem_ctrls1.mergedWrBursts                    0                       # Number of controller write bursts merged with an existing one (Count)
system.mem_ctrls1.neitherReadNorWriteReqs            0                       # Number of requests that are neither read nor write (Count)
system.mem_ctrls1.avgRdQLen                      0.00                       # Average read queue length when enqueuing ((Count/Tick))
system.mem_ctrls1.avgWrQLen                      0.00                       # Average write queue length when enqueuing ((Count/Tick))
system.mem_ctrls1.numRdRetry                        0                       # Number of times read queue was full causing retry (Count)
system.mem_ctrls1.numWrRetry                        0                       # Number of times write queue was full causing retry (Count)
system.mem_ctrls1.readPktSize::0                    0                       # Read request sizes (log2) (Count)
system.mem_ctrls1.readPktSize::1                    0                       # Read request sizes (log2) (Count)
system.mem_ctrls1.readPktSize::2                    0                       # Read request sizes (log2) (Count)
system.mem_ctrls1.readPktSize::3                    0                       # Read request sizes (log2) (Count)
system.mem_ctrls1.readPktSize::4                    0                       # Read request sizes (log2) (Count)
system.mem_ctrls1.readPktSize::5                    0                       # Read request sizes (log2) (Count)
system.mem_ctrls1.readPktSize::6                    0                       # Read request sizes (log2) (Count)
system.mem_ctrls1.writePktSize::0                   0                       # Write request sizes (log2) (Count)
system.mem_ctrls1.writePktSize::1                   0                       # Write request sizes (log2) (Count)
system.mem_ctrls1.writePktSize::2                   0                       # Write request sizes (log2) (Count)
system.mem_ctrls1.writePktSize::3                   0                       # Write request sizes (log2) (Count)
system.mem_ctrls1.writePktSize::4                   0                       # Write request sizes (log2) (Count)
system.mem_ctrls1.writePktSize::5                   0                       # Write request sizes (log2) (Count)
system.mem_ctrls1.writePktSize::6                   0                       # Write request sizes (log2) (Count)
system.mem_ctrls1.rdQLenPdf::0                      0                       # What read queue length does an incoming req see (Count)
system.mem_ctrls1.rdQLenPdf::1                      0                       # What read queue length does an incoming req see (Count)
system.mem_ctrls1.rdQLenPdf::2                      0                       # What read queue length does an incoming req see (Count)
system.mem_ctrls1.rdQLenPdf::3                      0                       # What read queue length does an incoming req see (Count)
system.mem_ctrls1.rdQLenPdf::4                      0                       # What read queue length does an incoming req see (Count)
system.mem_ctrls1.rdQLenPdf::5                      0                       # What read queue length does an incoming req see (Count)
system.mem_ctrls1.rdQLenPdf::6                      0                       # What read queue length does an incoming req see (Count)
system.mem_ctrls1.rdQLenPdf::7                      0                       # What read queue length does an incoming req see (Count)
system.mem_ctrls1.rdQLenPdf::8                      0                       # What read queue length does an incoming req see (Count)
system.mem_ctrls1.rdQLenPdf::9                      0                       # What read queue length does an incoming req see (Count)
system.mem_ctrls1.rdQLenPdf::10                     0                       # What read queue length does an incoming req see (Count)
system.mem_ctrls1.rdQLenPdf::11                     0                       # What read queue length does an incoming req see (Count)
system.mem_ctrls1.rdQLenPdf::12                     0                       # What read queue length does an incoming req see (Count)
system.mem_ctrls1.rdQLenPdf::13                     0                       # What read queue length does an incoming req see (Count)
system.mem_ctrls1.rdQLenPdf::14                     0                       # What read queue length does an incoming req see (Count)
system.mem_ctrls1.rdQLenPdf::15                     0                       # What read queue length does an incoming req see (Count)
system.mem_ctrls1.rdQLenPdf::16                     0                       # What read queue length does an incoming req see (Count)
system.mem_ctrls1.rdQLenPdf::17                     0                       # What read queue length does an incoming req see (Count)
system.mem_ctrls1.rdQLenPdf::18                     0                       # What read queue length does an incoming req see (Count)
system.mem_ctrls1.rdQLenPdf::19                     0                       # What read queue length does an incoming req see (Count)
system.mem_ctrls1.rdQLenPdf::20                     0                       # What read queue length does an incoming req see (Count)
system.mem_ctrls1.rdQLenPdf::21                     0                       # What read queue length does an incoming req see (Count)
system.mem_ctrls1.rdQLenPdf::22                     0                       # What read queue length does an incoming req see (Count)
system.mem_ctrls1.rdQLenPdf::23                     0                       # What read queue length does an incoming req see (Count)
system.mem_ctrls1.rdQLenPdf::24                     0                       # What read queue length does an incoming req see (Count)
system.mem_ctrls1.rdQLenPdf::25                     0                       # What read queue length does an incoming req see (Count)
system.mem_ctrls1.rdQLenPdf::26                     0                       # What read queue length does an incoming req see (Count)
system.mem_ctrls1.rdQLenPdf::27                     0                       # What read queue length does an incoming req see (Count)
system.mem_ctrls1.rdQLenPdf::28                     0                       # What read queue length does an incoming req see (Count)
system.mem_ctrls1.rdQLenPdf::29                     0                       # What read queue length does an incoming req see (Count)
system.mem_ctrls1.rdQLenPdf::30                     0                       # What read queue length does an incoming req see (Count)
system.mem_ctrls1.rdQLenPdf::31                     0                       # What read queue length does an incoming req see (Count)
system.mem_ctrls1.wrQLenPdf::0                      0                       # What write queue length does an incoming req see (Count)
system.mem_ctrls1.wrQLenPdf::1                      0                       # What write queue length does an incoming req see (Count)
system.mem_ctrls1.wrQLenPdf::2                      0                       # What write queue length does an incoming req see (Count)
system.mem_ctrls1.wrQLenPdf::3                      0                       # What write queue length does an incoming req see (Count)
system.mem_ctrls1.wrQLenPdf::4                      0                       # What write queue length does an incoming req see (Count)
system.mem_ctrls1.wrQLenPdf::5                      0                       # What write queue length does an incoming req see (Count)
system.mem_ctrls1.wrQLenPdf::6                      0                       # What write queue length does an incoming req see (Count)
system.mem_ctrls1.wrQLenPdf::7                      0                       # What write queue length does an incoming req see (Count)
system.mem_ctrls1.wrQLenPdf::8                      0                       # What write queue length does an incoming req see (Count)
system.mem_ctrls1.wrQLenPdf::9                      0                       # What write queue length does an incoming req see (Count)
system.mem_ctrls1.wrQLenPdf::10                     0                       # What write queue length does an incoming req see (Count)
system.mem_ctrls1.wrQLenPdf::11                     0                       # What write queue length does an incoming req see (Count)
system.mem_ctrls1.wrQLenPdf::12                     0                       # What write queue length does an incoming req see (Count)
system.mem_ctrls1.wrQLenPdf::13                     0                       # What write queue length does an incoming req see (Count)
system.mem_ctrls1.wrQLenPdf::14                     0                       # What write queue length does an incoming req see (Count)
system.mem_ctrls1.wrQLenPdf::15                     0                       # What write queue length does an incoming req see (Count)
system.mem_ctrls1.wrQLenPdf::16                     0                       # What write queue length does an incoming req see (Count)
system.mem_ctrls1.wrQLenPdf::17                     0                       # What write queue length does an incoming req see (Count)
system.mem_ctrls1.wrQLenPdf::18                     0                       # What write queue length does an incoming req see (Count)
system.mem_ctrls1.wrQLenPdf::19                     0                       # What write queue length does an incoming req see (Count)
system.mem_ctrls1.wrQLenPdf::20                     0                       # What write queue length does an incoming req see (Count)
system.mem_ctrls1.wrQLenPdf::21                     0                       # What write queue length does an incoming req see (Count)
system.mem_ctrls1.wrQLenPdf::22                     0                       # What write queue length does an incoming req see (Count)
system.mem_ctrls1.wrQLenPdf::23                     0                       # What write queue length does an incoming req see (Count)
system.mem_ctrls1.wrQLenPdf::24                     0                       # What write queue length does an incoming req see (Count)
system.mem_ctrls1.wrQLenPdf::25                     0                       # What write queue length does an incoming req see (Count)
system.mem_ctrls1.wrQLenPdf::26                     0                       # What write queue length does an incoming req see (Count)
system.mem_ctrls1.wrQLenPdf::27                     0                       # What write queue length does an incoming req see (Count)
system.mem_ctrls1.wrQLenPdf::28                     0                       # What write queue length does an incoming req see (Count)
system.mem_ctrls1.wrQLenPdf::29                     0                       # What write queue length does an incoming req see (Count)
system.mem_ctrls1.wrQLenPdf::30                     0                       # What write queue length does an incoming req see (Count)
system.mem_ctrls1.wrQLenPdf::31                     0                       # What write queue length does an incoming req see (Count)
system.mem_ctrls1.wrQLenPdf::32                     0                       # What write queue length does an incoming req see (Count)
system.mem_ctrls1.wrQLenPdf::33                     0                       # What write queue length does an incoming req see (Count)
system.mem_ctrls1.wrQLenPdf::34                     0                       # What write queue length does an incoming req see (Count)
system.mem_ctrls1.wrQLenPdf::35                     0                       # What write queue length does an incoming req see (Count)
system.mem_ctrls1.wrQLenPdf::36                     0                       # What write queue length does an incoming req see (Count)
system.mem_ctrls1.wrQLenPdf::37                     0                       # What write queue length does an incoming req see (Count)
system.mem_ctrls1.wrQLenPdf::38                     0                       # What write queue length does an incoming req see (Count)
system.mem_ctrls1.wrQLenPdf::39                     0                       # What write queue length does an incoming req see (Count)
system.mem_ctrls1.wrQLenPdf::40                     0                       # What write queue length does an incoming req see (Count)
system.mem_ctrls1.wrQLenPdf::41                     0                       # What write queue length does an incoming req see (Count)
system.mem_ctrls1.wrQLenPdf::42                     0                       # What write queue length does an incoming req see (Count)
system.mem_ctrls1.wrQLenPdf::43                     0                       # What write queue length does an incoming req see (Count)
system.mem_ctrls1.wrQLenPdf::44                     0                       # What write queue length does an incoming req see (Count)
system.mem_ctrls1.wrQLenPdf::45                     0                       # What write queue length does an incoming req see (Count)
system.mem_ctrls1.wrQLenPdf::46                     0                       # What write queue length does an incoming req see (Count)
system.mem_ctrls1.wrQLenPdf::47                     0                       # What write queue length does an incoming req see (Count)
system.mem_ctrls1.wrQLenPdf::48                     0                       # What write queue length does an incoming req see (Count)
system.mem_ctrls1.wrQLenPdf::49                     0                       # What write queue length does an incoming req see (Count)
system.mem_ctrls1.wrQLenPdf::50                     0                       # What write queue length does an incoming req see (Count)
system.mem_ctrls1.wrQLenPdf::51                     0                       # What write queue length does an incoming req see (Count)
system.mem_ctrls1.wrQLenPdf::52                     0                       # What write queue length does an incoming req see (Count)
system.mem_ctrls1.wrQLenPdf::53                     0                       # What write queue length does an incoming req see (Count)
system.mem_ctrls1.wrQLenPdf::54                     0                       # What write queue length does an incoming req see (Count)
system.mem_ctrls1.wrQLenPdf::55                     0                       # What write queue length does an incoming req see (Count)
system.mem_ctrls1.wrQLenPdf::56                     0                       # What write queue length does an incoming req see (Count)
system.mem_ctrls1.wrQLenPdf::57                     0                       # What write queue length does an incoming req see (Count)
system.mem_ctrls1.wrQLenPdf::58                     0                       # What write queue length does an incoming req see (Count)
system.mem_ctrls1.wrQLenPdf::59                     0                       # What write queue length does an incoming req see (Count)
system.mem_ctrls1.wrQLenPdf::60                     0                       # What write queue length does an incoming req see (Count)
system.mem_ctrls1.wrQLenPdf::61                     0                       # What write queue length does an incoming req see (Count)
system.mem_ctrls1.wrQLenPdf::62                     0                       # What write queue length does an incoming req see (Count)
system.mem_ctrls1.wrQLenPdf::63                     0                       # What write queue length does an incoming req see (Count)
system.mem_ctrls1.bytesReadWrQ                      0                       # Total number of bytes read from write queue (Byte)
system.mem_ctrls1.bytesReadSys                      0                       # Total read bytes from the system interface side (Byte)
system.mem_ctrls1.bytesWrittenSys                   0                       # Total written bytes from the system interface side (Byte)
system.mem_ctrls1.avgRdBWSys               0.00000000                       # Average system read bandwidth in Byte/s ((Byte/Second))
system.mem_ctrls1.avgWrBWSys               0.00000000                       # Average system write bandwidth in Byte/s ((Byte/Second))
system.mem_ctrls1.totGap                            0                       # Total gap between requests (Tick)
system.mem_ctrls1.avgGap                          nan                       # Average gap between requests ((Tick/Count))
system.mem_ctrls1.dram.readBursts                   0                       # Number of DRAM read bursts (Count)
system.mem_ctrls1.dram.writeBursts                  0                       # Number of DRAM write bursts (Count)
system.mem_ctrls1.dram.perBankRdBursts::0            0                       # Per bank write bursts (Count)
system.mem_ctrls1.dram.perBankRdBursts::1            0                       # Per bank write bursts (Count)
system.mem_ctrls1.dram.perBankRdBursts::2            0                       # Per bank write bursts (Count)
system.mem_ctrls1.dram.perBankRdBursts::3            0                       # Per bank write bursts (Count)
system.mem_ctrls1.dram.perBankRdBursts::4            0                       # Per bank write bursts (Count)
system.mem_ctrls1.dram.perBankRdBursts::5            0                       # Per bank write bursts (Count)
system.mem_ctrls1.dram.perBankRdBursts::6            0                       # Per bank write bursts (Count)
system.mem_ctrls1.dram.perBankRdBursts::7            0                       # Per bank write bursts (Count)
system.mem_ctrls1.dram.perBankRdBursts::8            0                       # Per bank write bursts (Count)
system.mem_ctrls1.dram.perBankRdBursts::9            0                       # Per bank write bursts (Count)
system.mem_ctrls1.dram.perBankRdBursts::10            0                       # Per bank write bursts (Count)
system.mem_ctrls1.dram.perBankRdBursts::11            0                       # Per bank write bursts (Count)
system.mem_ctrls1.dram.perBankRdBursts::12            0                       # Per bank write bursts (Count)
system.mem_ctrls1.dram.perBankRdBursts::13            0                       # Per bank write bursts (Count)
system.mem_ctrls1.dram.perBankRdBursts::14            0                       # Per bank write bursts (Count)
system.mem_ctrls1.dram.perBankRdBursts::15            0                       # Per bank write bursts (Count)
system.mem_ctrls1.dram.perBankWrBursts::0            0                       # Per bank write bursts (Count)
system.mem_ctrls1.dram.perBankWrBursts::1            0                       # Per bank write bursts (Count)
system.mem_ctrls1.dram.perBankWrBursts::2            0                       # Per bank write bursts (Count)
system.mem_ctrls1.dram.perBankWrBursts::3            0                       # Per bank write bursts (Count)
system.mem_ctrls1.dram.perBankWrBursts::4            0                       # Per bank write bursts (Count)
system.mem_ctrls1.dram.perBankWrBursts::5            0                       # Per bank write bursts (Count)
system.mem_ctrls1.dram.perBankWrBursts::6            0                       # Per bank write bursts (Count)
system.mem_ctrls1.dram.perBankWrBursts::7            0                       # Per bank write bursts (Count)
system.mem_ctrls1.dram.perBankWrBursts::8            0                       # Per bank write bursts (Count)
system.mem_ctrls1.dram.perBankWrBursts::9            0                       # Per bank write bursts (Count)
system.mem_ctrls1.dram.perBankWrBursts::10            0                       # Per bank write bursts (Count)
system.mem_ctrls1.dram.perBankWrBursts::11            0                       # Per bank write bursts (Count)
system.mem_ctrls1.dram.perBankWrBursts::12            0                       # Per bank write bursts (Count)
system.mem_ctrls1.dram.perBankWrBursts::13            0                       # Per bank write bursts (Count)
system.mem_ctrls1.dram.perBankWrBursts::14            0                       # Per bank write bursts (Count)
system.mem_ctrls1.dram.perBankWrBursts::15            0                       # Per bank write bursts (Count)
system.mem_ctrls1.dram.totQLat                      0                       # Total ticks spent queuing (Tick)
system.mem_ctrls1.dram.totBusLat                    0                       # Total ticks spent in databus transfers (Tick)
system.mem_ctrls1.dram.totMemAccLat                 0                       # Total ticks spent from burst creation until serviced by the DRAM (Tick)
system.mem_ctrls1.dram.avgQLat                    nan                       # Average queueing delay per DRAM burst ((Tick/Count))
system.mem_ctrls1.dram.avgBusLat                  nan                       # Average bus latency per DRAM burst ((Tick/Count))
system.mem_ctrls1.dram.avgMemAccLat               nan                       # Average memory access latency per DRAM burst ((Tick/Count))
system.mem_ctrls1.dram.readRowHits                  0                       # Number of row buffer hits during reads (Count)
system.mem_ctrls1.dram.writeRowHits                 0                       # Number of row buffer hits during writes (Count)
system.mem_ctrls1.dram.readRowHitRate             nan                       # Row buffer hit rate for reads (Ratio)
system.mem_ctrls1.dram.writeRowHitRate            nan                       # Row buffer hit rate for writes (Ratio)
system.mem_ctrls1.dram.bytesRead                    0                       # Total bytes read (Byte)
system.mem_ctrls1.dram.bytesWritten                 0                       # Total bytes written (Byte)
system.mem_ctrls1.dram.avgRdBW                      0                       # Average DRAM read bandwidth in MiBytes/s ((Byte/Second))
system.mem_ctrls1.dram.avgWrBW                      0                       # Average DRAM write bandwidth in MiBytes/s ((Byte/Second))
system.mem_ctrls1.dram.peakBW                12800.00                       # Theoretical peak bandwidth in MiByte/s ((Byte/Second))
system.mem_ctrls1.dram.busUtil                   0.00                       # Data bus utilization in percentage (Ratio)
system.mem_ctrls1.dram.busUtilRead               0.00                       # Data bus utilization in percentage for reads (Ratio)
system.mem_ctrls1.dram.busUtilWrite              0.00                       # Data bus utilization in percentage for writes (Ratio)
system.mem_ctrls1.dram.pageHitRate                nan                       # Row buffer hit rate, read and write combined (Ratio)
system.mem_ctrls1.dram.power_state.pwrStateResidencyTicks::UNDEFINED     10000000                       # Cumulative time (in ticks) in various power states (Tick)
system.mem_ctrls1.dram.rank0.actEnergy              0                       # Energy for activate commands per rank (pJ) (Joule)
system.mem_ctrls1.dram.rank0.preEnergy              0                       # Energy for precharge commands per rank (pJ) (Joule)
system.mem_ctrls1.dram.rank0.readEnergy             0                       # Energy for read commands per rank (pJ) (Joule)
system.mem_ctrls1.dram.rank0.writeEnergy            0                       # Energy for write commands per rank (pJ) (Joule)
system.mem_ctrls1.dram.rank0.refreshEnergy 614640.000000                       # Energy for refresh commands per rank (pJ) (Joule)
system.mem_ctrls1.dram.rank0.actBackEnergy       112290                       # Energy for active background per rank (pJ) (Joule)
system.mem_ctrls1.dram.rank0.preBackEnergy      3361440                       # Energy for precharge background per rank (pJ) (Joule)
system.mem_ctrls1.dram.rank0.actPowerDownEnergy            0                       # Energy for active power-down per rank (pJ) (Joule)
system.mem_ctrls1.dram.rank0.prePowerDownEnergy            0                       # Energy for precharge power-down per rank (pJ) (Joule)
system.mem_ctrls1.dram.rank0.selfRefreshEnergy            0                       # Energy for self refresh per rank (pJ) (Joule)
system.mem_ctrls1.dram.rank0.totalEnergy      4088370                       # Total energy per rank (pJ) (Joule)
system.mem_ctrls1.dram.rank0.averagePower   454.263333                       # Core power per rank (mW) (Watt)
system.mem_ctrls1.dram.rank0.totalIdleTime            0                       # Total Idle time Per DRAM Rank (Tick)
system.mem_ctrls1.dram.rank0.pwrStateTime::IDLE      9740000                       # Time in different power states (Tick)
system.mem_ctrls1.dram.rank0.pwrStateTime::REF       260000                       # Time in different power states (Tick)
system.mem_ctrls1.dram.rank0.pwrStateTime::SREF            0                       # Time in different power states (Tick)
system.mem_ctrls1.dram.rank0.pwrStateTime::PRE_PDN            0                       # Time in different power states (Tick)
system.mem_ctrls1.dram.rank0.pwrStateTime::ACT            0                       # Time in different power states (Tick)
system.mem_ctrls1.dram.rank0.pwrStateTime::ACT_PDN            0                       # Time in different power states (Tick)
system.mem_ctrls1.dram.rank1.actEnergy              0                       # Energy for activate commands per rank (pJ) (Joule)
system.mem_ctrls1.dram.rank1.preEnergy              0                       # Energy for precharge commands per rank (pJ) (Joule)
system.mem_ctrls1.dram.rank1.readEnergy             0                       # Energy for read commands per rank (pJ) (Joule)
system.mem_ctrls1.dram.rank1.writeEnergy            0                       # Energy for write commands per rank (pJ) (Joule)
system.mem_ctrls1.dram.rank1.refreshEnergy 614640.000000                       # Energy for refresh commands per rank (pJ) (Joule)
system.mem_ctrls1.dram.rank1.actBackEnergy       112290                       # Energy for active background per rank (pJ) (Joule)
system.mem_ctrls1.dram.rank1.preBackEnergy      3361440                       # Energy for precharge background per rank (pJ) (Joule)
system.mem_ctrls1.dram.rank1.actPowerDownEnergy            0                       # Energy for active power-down per rank (pJ) (Joule)
system.mem_ctrls1.dram.rank1.prePowerDownEnergy            0                       # Energy for precharge power-down per rank (pJ) (Joule)
system.mem_ctrls1.dram.rank1.selfRefreshEnergy            0                       # Energy for self refresh per rank (pJ) (Joule)
system.mem_ctrls1.dram.rank1.totalEnergy      4088370                       # Total energy per rank (pJ) (Joule)
system.mem_ctrls1.dram.rank1.averagePower   454.263333                       # Core power per rank (mW) (Watt)
system.mem_ctrls1.dram.rank1.totalIdleTime            0                       # Total Idle time Per DRAM Rank (Tick)
system.mem_ctrls1.dram.rank1.pwrStateTime::IDLE      9740000                       # Time in different power states (Tick)
system.mem_ctrls1.dram.rank1.pwrStateTime::REF       260000                       # Time in different power states (Tick)
system.mem_ctrls1.dram.rank1.pwrStateTime::SREF            0                       # Time in different power states (Tick)
system.mem_ctrls1.dram.rank1.pwrStateTime::PRE_PDN            0                       # Time in different power states (Tick)
system.mem_ctrls1.dram.rank1.pwrStateTime::ACT            0                       # Time in different power states (Tick)
system.mem_ctrls1.dram.rank1.pwrStateTime::ACT_PDN            0                       # Time in different power states (Tick)
system.mem_ctrls1.power_state.pwrStateResidencyTicks::UNDEFINED     10000000                       # Cumulative time (in ticks) in various power states (Tick)
system.mem_ctrls10.priorityMinLatency    0.000000000000                       # per QoS priority minimum request to response latency (Second)
system.mem_ctrls10.priorityMaxLatency    0.000000000000                       # per QoS priority maximum request to response latency (Second)
system.mem_ctrls10.numReadWriteTurnArounds            0                       # Number of turnarounds from READ to WRITE (Count)
system.mem_ctrls10.numWriteReadTurnArounds            0                       # Number of turnarounds from WRITE to READ (Count)
system.mem_ctrls10.numStayReadState                 2                       # Number of times bus staying in READ state (Count)
system.mem_ctrls10.numStayWriteState                0                       # Number of times bus staying in WRITE state (Count)
system.mem_ctrls10.readReqs                         0                       # Number of read requests accepted (Count)
system.mem_ctrls10.writeReqs                        0                       # Number of write requests accepted (Count)
system.mem_ctrls10.readBursts                       0                       # Number of controller read bursts, including those serviced by the write queue (Count)
system.mem_ctrls10.writeBursts                      0                       # Number of controller write bursts, including those merged in the write queue (Count)
system.mem_ctrls10.servicedByWrQ                    0                       # Number of controller read bursts serviced by the write queue (Count)
system.mem_ctrls10.mergedWrBursts                   0                       # Number of controller write bursts merged with an existing one (Count)
system.mem_ctrls10.neitherReadNorWriteReqs            0                       # Number of requests that are neither read nor write (Count)
system.mem_ctrls10.avgRdQLen                     0.00                       # Average read queue length when enqueuing ((Count/Tick))
system.mem_ctrls10.avgWrQLen                     0.00                       # Average write queue length when enqueuing ((Count/Tick))
system.mem_ctrls10.numRdRetry                       0                       # Number of times read queue was full causing retry (Count)
system.mem_ctrls10.numWrRetry                       0                       # Number of times write queue was full causing retry (Count)
system.mem_ctrls10.readPktSize::0                   0                       # Read request sizes (log2) (Count)
system.mem_ctrls10.readPktSize::1                   0                       # Read request sizes (log2) (Count)
system.mem_ctrls10.readPktSize::2                   0                       # Read request sizes (log2) (Count)
system.mem_ctrls10.readPktSize::3                   0                       # Read request sizes (log2) (Count)
system.mem_ctrls10.readPktSize::4                   0                       # Read request sizes (log2) (Count)
system.mem_ctrls10.readPktSize::5                   0                       # Read request sizes (log2) (Count)
system.mem_ctrls10.readPktSize::6                   0                       # Read request sizes (log2) (Count)
system.mem_ctrls10.writePktSize::0                  0                       # Write request sizes (log2) (Count)
system.mem_ctrls10.writePktSize::1                  0                       # Write request sizes (log2) (Count)
system.mem_ctrls10.writePktSize::2                  0                       # Write request sizes (log2) (Count)
system.mem_ctrls10.writePktSize::3                  0                       # Write request sizes (log2) (Count)
system.mem_ctrls10.writePktSize::4                  0                       # Write request sizes (log2) (Count)
system.mem_ctrls10.writePktSize::5                  0                       # Write request sizes (log2) (Count)
system.mem_ctrls10.writePktSize::6                  0                       # Write request sizes (log2) (Count)
system.mem_ctrls10.rdQLenPdf::0                     0                       # What read queue length does an incoming req see (Count)
system.mem_ctrls10.rdQLenPdf::1                     0                       # What read queue length does an incoming req see (Count)
system.mem_ctrls10.rdQLenPdf::2                     0                       # What read queue length does an incoming req see (Count)
system.mem_ctrls10.rdQLenPdf::3                     0                       # What read queue length does an incoming req see (Count)
system.mem_ctrls10.rdQLenPdf::4                     0                       # What read queue length does an incoming req see (Count)
system.mem_ctrls10.rdQLenPdf::5                     0                       # What read queue length does an incoming req see (Count)
system.mem_ctrls10.rdQLenPdf::6                     0                       # What read queue length does an incoming req see (Count)
system.mem_ctrls10.rdQLenPdf::7                     0                       # What read queue length does an incoming req see (Count)
system.mem_ctrls10.rdQLenPdf::8                     0                       # What read queue length does an incoming req see (Count)
system.mem_ctrls10.rdQLenPdf::9                     0                       # What read queue length does an incoming req see (Count)
system.mem_ctrls10.rdQLenPdf::10                    0                       # What read queue length does an incoming req see (Count)
system.mem_ctrls10.rdQLenPdf::11                    0                       # What read queue length does an incoming req see (Count)
system.mem_ctrls10.rdQLenPdf::12                    0                       # What read queue length does an incoming req see (Count)
system.mem_ctrls10.rdQLenPdf::13                    0                       # What read queue length does an incoming req see (Count)
system.mem_ctrls10.rdQLenPdf::14                    0                       # What read queue length does an incoming req see (Count)
system.mem_ctrls10.rdQLenPdf::15                    0                       # What read queue length does an incoming req see (Count)
system.mem_ctrls10.rdQLenPdf::16                    0                       # What read queue length does an incoming req see (Count)
system.mem_ctrls10.rdQLenPdf::17                    0                       # What read queue length does an incoming req see (Count)
system.mem_ctrls10.rdQLenPdf::18                    0                       # What read queue length does an incoming req see (Count)
system.mem_ctrls10.rdQLenPdf::19                    0                       # What read queue length does an incoming req see (Count)
system.mem_ctrls10.rdQLenPdf::20                    0                       # What read queue length does an incoming req see (Count)
system.mem_ctrls10.rdQLenPdf::21                    0                       # What read queue length does an incoming req see (Count)
system.mem_ctrls10.rdQLenPdf::22                    0                       # What read queue length does an incoming req see (Count)
system.mem_ctrls10.rdQLenPdf::23                    0                       # What read queue length does an incoming req see (Count)
system.mem_ctrls10.rdQLenPdf::24                    0                       # What read queue length does an incoming req see (Count)
system.mem_ctrls10.rdQLenPdf::25                    0                       # What read queue length does an incoming req see (Count)
system.mem_ctrls10.rdQLenPdf::26                    0                       # What read queue length does an incoming req see (Count)
system.mem_ctrls10.rdQLenPdf::27                    0                       # What read queue length does an incoming req see (Count)
system.mem_ctrls10.rdQLenPdf::28                    0                       # What read queue length does an incoming req see (Count)
system.mem_ctrls10.rdQLenPdf::29                    0                       # What read queue length does an incoming req see (Count)
system.mem_ctrls10.rdQLenPdf::30                    0                       # What read queue length does an incoming req see (Count)
system.mem_ctrls10.rdQLenPdf::31                    0                       # What read queue length does an incoming req see (Count)
system.mem_ctrls10.wrQLenPdf::0                     0                       # What write queue length does an incoming req see (Count)
system.mem_ctrls10.wrQLenPdf::1                     0                       # What write queue length does an incoming req see (Count)
system.mem_ctrls10.wrQLenPdf::2                     0                       # What write queue length does an incoming req see (Count)
system.mem_ctrls10.wrQLenPdf::3                     0                       # What write queue length does an incoming req see (Count)
system.mem_ctrls10.wrQLenPdf::4                     0                       # What write queue length does an incoming req see (Count)
system.mem_ctrls10.wrQLenPdf::5                     0                       # What write queue length does an incoming req see (Count)
system.mem_ctrls10.wrQLenPdf::6                     0                       # What write queue length does an incoming req see (Count)
system.mem_ctrls10.wrQLenPdf::7                     0                       # What write queue length does an incoming req see (Count)
system.mem_ctrls10.wrQLenPdf::8                     0                       # What write queue length does an incoming req see (Count)
system.mem_ctrls10.wrQLenPdf::9                     0                       # What write queue length does an incoming req see (Count)
system.mem_ctrls10.wrQLenPdf::10                    0                       # What write queue length does an incoming req see (Count)
system.mem_ctrls10.wrQLenPdf::11                    0                       # What write queue length does an incoming req see (Count)
system.mem_ctrls10.wrQLenPdf::12                    0                       # What write queue length does an incoming req see (Count)
system.mem_ctrls10.wrQLenPdf::13                    0                       # What write queue length does an incoming req see (Count)
system.mem_ctrls10.wrQLenPdf::14                    0                       # What write queue length does an incoming req see (Count)
system.mem_ctrls10.wrQLenPdf::15                    0                       # What write queue length does an incoming req see (Count)
system.mem_ctrls10.wrQLenPdf::16                    0                       # What write queue length does an incoming req see (Count)
system.mem_ctrls10.wrQLenPdf::17                    0                       # What write queue length does an incoming req see (Count)
system.mem_ctrls10.wrQLenPdf::18                    0                       # What write queue length does an incoming req see (Count)
system.mem_ctrls10.wrQLenPdf::19                    0                       # What write queue length does an incoming req see (Count)
system.mem_ctrls10.wrQLenPdf::20                    0                       # What write queue length does an incoming req see (Count)
system.mem_ctrls10.wrQLenPdf::21                    0                       # What write queue length does an incoming req see (Count)
system.mem_ctrls10.wrQLenPdf::22                    0                       # What write queue length does an incoming req see (Count)
system.mem_ctrls10.wrQLenPdf::23                    0                       # What write queue length does an incoming req see (Count)
system.mem_ctrls10.wrQLenPdf::24                    0                       # What write queue length does an incoming req see (Count)
system.mem_ctrls10.wrQLenPdf::25                    0                       # What write queue length does an incoming req see (Count)
system.mem_ctrls10.wrQLenPdf::26                    0                       # What write queue length does an incoming req see (Count)
system.mem_ctrls10.wrQLenPdf::27                    0                       # What write queue length does an incoming req see (Count)
system.mem_ctrls10.wrQLenPdf::28                    0                       # What write queue length does an incoming req see (Count)
system.mem_ctrls10.wrQLenPdf::29                    0                       # What write queue length does an incoming req see (Count)
system.mem_ctrls10.wrQLenPdf::30                    0                       # What write queue length does an incoming req see (Count)
system.mem_ctrls10.wrQLenPdf::31                    0                       # What write queue length does an incoming req see (Count)
system.mem_ctrls10.wrQLenPdf::32                    0                       # What write queue length does an incoming req see (Count)
system.mem_ctrls10.wrQLenPdf::33                    0                       # What write queue length does an incoming req see (Count)
system.mem_ctrls10.wrQLenPdf::34                    0                       # What write queue length does an incoming req see (Count)
system.mem_ctrls10.wrQLenPdf::35                    0                       # What write queue length does an incoming req see (Count)
system.mem_ctrls10.wrQLenPdf::36                    0                       # What write queue length does an incoming req see (Count)
system.mem_ctrls10.wrQLenPdf::37                    0                       # What write queue length does an incoming req see (Count)
system.mem_ctrls10.wrQLenPdf::38                    0                       # What write queue length does an incoming req see (Count)
system.mem_ctrls10.wrQLenPdf::39                    0                       # What write queue length does an incoming req see (Count)
system.mem_ctrls10.wrQLenPdf::40                    0                       # What write queue length does an incoming req see (Count)
system.mem_ctrls10.wrQLenPdf::41                    0                       # What write queue length does an incoming req see (Count)
system.mem_ctrls10.wrQLenPdf::42                    0                       # What write queue length does an incoming req see (Count)
system.mem_ctrls10.wrQLenPdf::43                    0                       # What write queue length does an incoming req see (Count)
system.mem_ctrls10.wrQLenPdf::44                    0                       # What write queue length does an incoming req see (Count)
system.mem_ctrls10.wrQLenPdf::45                    0                       # What write queue length does an incoming req see (Count)
system.mem_ctrls10.wrQLenPdf::46                    0                       # What write queue length does an incoming req see (Count)
system.mem_ctrls10.wrQLenPdf::47                    0                       # What write queue length does an incoming req see (Count)
system.mem_ctrls10.wrQLenPdf::48                    0                       # What write queue length does an incoming req see (Count)
system.mem_ctrls10.wrQLenPdf::49                    0                       # What write queue length does an incoming req see (Count)
system.mem_ctrls10.wrQLenPdf::50                    0                       # What write queue length does an incoming req see (Count)
system.mem_ctrls10.wrQLenPdf::51                    0                       # What write queue length does an incoming req see (Count)
system.mem_ctrls10.wrQLenPdf::52                    0                       # What write queue length does an incoming req see (Count)
system.mem_ctrls10.wrQLenPdf::53                    0                       # What write queue length does an incoming req see (Count)
system.mem_ctrls10.wrQLenPdf::54                    0                       # What write queue length does an incoming req see (Count)
system.mem_ctrls10.wrQLenPdf::55                    0                       # What write queue length does an incoming req see (Count)
system.mem_ctrls10.wrQLenPdf::56                    0                       # What write queue length does an incoming req see (Count)
system.mem_ctrls10.wrQLenPdf::57                    0                       # What write queue length does an incoming req see (Count)
system.mem_ctrls10.wrQLenPdf::58                    0                       # What write queue length does an incoming req see (Count)
system.mem_ctrls10.wrQLenPdf::59                    0                       # What write queue length does an incoming req see (Count)
system.mem_ctrls10.wrQLenPdf::60                    0                       # What write queue length does an incoming req see (Count)
system.mem_ctrls10.wrQLenPdf::61                    0                       # What write queue length does an incoming req see (Count)
system.mem_ctrls10.wrQLenPdf::62                    0                       # What write queue length does an incoming req see (Count)
[...]
system.ruby.network.routers133.sw_input_arbiter_activity        19201                       (Unspecified)
system.ruby.network.routers133.sw_output_arbiter_activity        18237                       (Unspecified)
system.ruby.network.routers133.vnet_0_counter         3122                       (Unspecified)
system.ruby.network.routers133.vnet_1_counter          573                       (Unspecified)
system.ruby.network.routers133.vnet_2_counter         2909                       (Unspecified)
system.ruby.network.routers211.buffer_reads         8974                       (Unspecified)
system.ruby.network.routers211.buffer_writes         8974                       (Unspecified)
system.ruby.network.routers211.crossbar_activity         8972                       (Unspecified)
system.ruby.network.routers211.forwarded_packets         4849                       (Unspecified)
system.ruby.network.routers211.generated_packets          907                       (Unspecified)
system.ruby.network.routers211.received_packets          906                       (Unspecified)
system.ruby.network.routers211.sw_input_arbiter_activity         9294                       (Unspecified)
system.ruby.network.routers211.sw_output_arbiter_activity         8972                       (Unspecified)
system.ruby.network.routers211.vnet_0_counter         3037                       (Unspecified)
system.ruby.network.routers211.vnet_1_counter         3047                       (Unspecified)
system.ruby.network.routers211.vnet_2_counter          578                       (Unspecified)
system.ruby.network.routers212.buffer_reads         5752                       (Unspecified)
system.ruby.network.routers212.buffer_writes         5752                       (Unspecified)
system.ruby.network.routers212.crossbar_activity         5750                       (Unspecified)
system.ruby.network.routers212.forwarded_packets         2202                       (Unspecified)
system.ruby.network.routers212.generated_packets          883                       (Unspecified)
system.ruby.network.routers212.received_packets          886                       (Unspecified)
system.ruby.network.routers212.sw_input_arbiter_activity         5881                       (Unspecified)
system.ruby.network.routers212.sw_output_arbiter_activity         5750                       (Unspecified)
system.ruby.network.routers212.vnet_0_counter         1656                       (Unspecified)
system.ruby.network.routers212.vnet_1_counter         1869                       (Unspecified)
system.ruby.network.routers212.vnet_2_counter          446                       (Unspecified)
system.ruby.network.routers213.buffer_reads        10233                       (Unspecified)
system.ruby.network.routers213.buffer_writes        10233                       (Unspecified)
system.ruby.network.routers213.crossbar_activity        10232                       (Unspecified)
system.ruby.network.routers213.forwarded_packets         3245                       (Unspecified)
system.ruby.network.routers213.generated_packets          906                       (Unspecified)
system.ruby.network.routers213.received_packets          875                       (Unspecified)
system.ruby.network.routers213.sw_input_arbiter_activity        10494                       (Unspecified)
system.ruby.network.routers213.sw_output_arbiter_activity        10232                       (Unspecified)
system.ruby.network.routers213.vnet_0_counter         1695                       (Unspecified)
system.ruby.network.routers213.vnet_1_counter         2029                       (Unspecified)
system.ruby.network.routers213.vnet_2_counter         1302                       (Unspecified)
system.ruby.network.routers221.buffer_reads         5203                       (Unspecified)
system.ruby.network.routers221.buffer_writes         5203                       (Unspecified)
system.ruby.network.routers221.crossbar_activity         5203                       (Unspecified)
system.ruby.network.routers221.forwarded_packets         1589                       (Unspecified)
system.ruby.network.routers221.generated_packets          921                       (Unspecified)
system.ruby.network.routers221.received_packets          896                       (Unspecified)
system.ruby.network.routers221.sw_input_arbiter_activity         5291                       (Unspecified)
system.ruby.network.routers221.sw_output_arbiter_activity         5203                       (Unspecified)
system.ruby.network.routers221.vnet_0_counter         1293                       (Unspecified)
system.ruby.network.routers221.vnet_1_counter         1664                       (Unspecified)
system.ruby.network.routers221.vnet_2_counter          449                       (Unspecified)
system.ruby.network.routers222.buffer_reads         3489                       (Unspecified)
system.ruby.network.routers222.buffer_writes         3489                       (Unspecified)
system.ruby.network.routers222.crossbar_activity         3487                       (Unspecified)
system.ruby.network.routers222.forwarded_packets            0                       (Unspecified)
system.ruby.network.routers222.generated_packets          861                       (Unspecified)
system.ruby.network.routers222.received_packets          877                       (Unspecified)
system.ruby.network.routers222.sw_input_arbiter_activity         3561                       (Unspecified)
system.ruby.network.routers222.sw_output_arbiter_activity         3487                       (Unspecified)
system.ruby.network.routers222.vnet_0_counter          439                       (Unspecified)
system.ruby.network.routers222.vnet_1_counter          861                       (Unspecified)
system.ruby.network.routers222.vnet_2_counter          438                       (Unspecified)
system.ruby.network.routers223.buffer_reads         8536                       (Unspecified)
system.ruby.network.routers223.buffer_writes         8536                       (Unspecified)
system.ruby.network.routers223.crossbar_activity         8533                       (Unspecified)
system.ruby.network.routers223.forwarded_packets         1577                       (Unspecified)
system.ruby.network.routers223.generated_packets          872                       (Unspecified)
system.ruby.network.routers223.received_packets          882                       (Unspecified)
system.ruby.network.routers223.sw_input_arbiter_activity         8759                       (Unspecified)
system.ruby.network.routers223.sw_output_arbiter_activity         8533                       (Unspecified)
system.ruby.network.routers223.vnet_0_counter          433                       (Unspecified)
system.ruby.network.routers223.vnet_1_counter         1594                       (Unspecified)
system.ruby.network.routers223.vnet_2_counter         1304                       (Unspecified)
system.ruby.network.routers231.buffer_reads        11717                       (Unspecified)
system.ruby.network.routers231.buffer_writes        11717                       (Unspecified)
system.ruby.network.routers231.crossbar_activity        11716                       (Unspecified)
system.ruby.network.routers231.forwarded_packets         3224                       (Unspecified)
system.ruby.network.routers231.generated_packets          878                       (Unspecified)
system.ruby.network.routers231.received_packets          879                       (Unspecified)
system.ruby.network.routers231.sw_input_arbiter_activity        12616                       (Unspecified)
system.ruby.network.routers231.sw_output_arbiter_activity        11716                       (Unspecified)
system.ruby.network.routers231.vnet_0_counter         1298                       (Unspecified)
system.ruby.network.routers231.vnet_1_counter         1999                       (Unspecified)
system.ruby.network.routers231.vnet_2_counter         1684                       (Unspecified)
system.ruby.network.routers232.buffer_reads        10532                       (Unspecified)
system.ruby.network.routers232.buffer_writes        10532                       (Unspecified)
system.ruby.network.routers232.crossbar_activity        10527                       (Unspecified)
system.ruby.network.routers232.forwarded_packets         2208                       (Unspecified)
system.ruby.network.routers232.generated_packets          884                       (Unspecified)
system.ruby.network.routers232.received_packets          797                       (Unspecified)
system.ruby.network.routers232.sw_input_arbiter_activity        11179                       (Unspecified)
system.ruby.network.routers232.sw_output_arbiter_activity        10527                       (Unspecified)
system.ruby.network.routers232.vnet_0_counter          405                       (Unspecified)
system.ruby.network.routers232.vnet_1_counter         1823                       (Unspecified)
system.ruby.network.routers232.vnet_2_counter         1661                       (Unspecified)
system.ruby.network.routers233.buffer_reads        18835                       (Unspecified)
system.ruby.network.routers233.buffer_writes        18835                       (Unspecified)
system.ruby.network.routers233.crossbar_activity        18835                       (Unspecified)
system.ruby.network.routers233.forwarded_packets         4903                       (Unspecified)
system.ruby.network.routers233.generated_packets          874                       (Unspecified)
system.ruby.network.routers233.received_packets          903                       (Unspecified)
system.ruby.network.routers233.sw_input_arbiter_activity        19775                       (Unspecified)
system.ruby.network.routers233.sw_output_arbiter_activity        18835                       (Unspecified)
system.ruby.network.routers233.vnet_0_counter          605                       (Unspecified)
system.ruby.network.routers233.vnet_1_counter         3037                       (Unspecified)
system.ruby.network.routers233.vnet_2_counter         3038                       (Unspecified)
system.ruby.network.routers311.buffer_reads        18848                       (Unspecified)
system.ruby.network.routers311.buffer_writes        18848                       (Unspecified)
system.ruby.network.routers311.crossbar_activity        18828                       (Unspecified)
system.ruby.network.routers311.forwarded_packets         4838                       (Unspecified)
system.ruby.network.routers311.generated_packets          929                       (Unspecified)
system.ruby.network.routers311.received_packets          867                       (Unspecified)
system.ruby.network.routers311.sw_input_arbiter_activity        26072                       (Unspecified)
system.ruby.network.routers311.sw_output_arbiter_activity        18828                       (Unspecified)
system.ruby.network.routers311.vnet_0_counter         3005                       (Unspecified)
system.ruby.network.routers311.vnet_1_counter          574                       (Unspecified)
system.ruby.network.routers311.vnet_2_counter         3055                       (Unspecified)
system.ruby.network.routers312.buffer_reads        13319                       (Unspecified)
system.ruby.network.routers312.buffer_writes        13319                       (Unspecified)
system.ruby.network.routers312.crossbar_activity        13308                       (Unspecified)
system.ruby.network.routers312.forwarded_packets         3283                       (Unspecified)
system.ruby.network.routers312.generated_packets          919                       (Unspecified)
system.ruby.network.routers312.received_packets          859                       (Unspecified)
system.ruby.network.routers312.sw_input_arbiter_activity        14947                       (Unspecified)
system.ruby.network.routers312.sw_output_arbiter_activity        13308                       (Unspecified)
system.ruby.network.routers312.vnet_0_counter         1699                       (Unspecified)
system.ruby.network.routers312.vnet_1_counter         1297                       (Unspecified)
system.ruby.network.routers312.vnet_2_counter         2065                       (Unspecified)
system.ruby.network.routers313.buffer_reads        11230                       (Unspecified)
system.ruby.network.routers313.buffer_writes        11230                       (Unspecified)
system.ruby.network.routers313.crossbar_activity        11222                       (Unspecified)
system.ruby.network.routers313.forwarded_packets         2174                       (Unspecified)
system.ruby.network.routers313.generated_packets          885                       (Unspecified)
system.ruby.network.routers313.received_packets          917                       (Unspecified)
system.ruby.network.routers313.sw_input_arbiter_activity        12186                       (Unspecified)
system.ruby.network.routers313.sw_output_arbiter_activity        11222                       (Unspecified)
system.ruby.network.routers313.vnet_0_counter         1703                       (Unspecified)
system.ruby.network.routers313.vnet_1_counter          459                       (Unspecified)
system.ruby.network.routers313.vnet_2_counter         1814                       (Unspecified)
system.ruby.network.routers321.buffer_reads        13586                       (Unspecified)
system.ruby.network.routers321.buffer_writes        13586                       (Unspecified)
system.ruby.network.routers321.crossbar_activity        13586                       (Unspecified)
system.ruby.network.routers321.forwarded_packets         3284                       (Unspecified)
system.ruby.network.routers321.generated_packets          948                       (Unspecified)
system.ruby.network.routers321.received_packets          866                       (Unspecified)
system.ruby.network.routers321.sw_input_arbiter_activity        15261                       (Unspecified)
system.ruby.network.routers321.sw_output_arbiter_activity        13586                       (Unspecified)
system.ruby.network.routers321.vnet_0_counter         1306                       (Unspecified)
system.ruby.network.routers321.vnet_1_counter         1670                       (Unspecified)
system.ruby.network.routers321.vnet_2_counter         2122                       (Unspecified)
system.ruby.network.routers322.buffer_reads        19514                       (Unspecified)
system.ruby.network.routers322.buffer_writes        19514                       (Unspecified)
system.ruby.network.routers322.crossbar_activity        19514                       (Unspecified)
system.ruby.network.routers322.forwarded_packets         4926                       (Unspecified)
system.ruby.network.routers322.generated_packets          948                       (Unspecified)
system.ruby.network.routers322.received_packets          856                       (Unspecified)
system.ruby.network.routers322.sw_input_arbiter_activity        27463                       (Unspecified)
system.ruby.network.routers322.sw_output_arbiter_activity        19514                       (Unspecified)
system.ruby.network.routers322.vnet_0_counter          589                       (Unspecified)
system.ruby.network.routers322.vnet_1_counter         2943                       (Unspecified)
system.ruby.network.routers322.vnet_2_counter         3198                       (Unspecified)
system.ruby.network.routers323.buffer_reads        11434                       (Unspecified)
system.ruby.network.routers323.buffer_writes        11434                       (Unspecified)
system.ruby.network.routers323.crossbar_activity        11429                       (Unspecified)
system.ruby.network.routers323.forwarded_packets         2136                       (Unspecified)
system.ruby.network.routers323.generated_packets          934                       (Unspecified)
system.ruby.network.routers323.received_packets          874                       (Unspecified)
system.ruby.network.routers323.sw_input_arbiter_activity        12485                       (Unspecified)
system.ruby.network.routers323.sw_output_arbiter_activity        11429                       (Unspecified)
system.ruby.network.routers323.vnet_0_counter          450                       (Unspecified)
system.ruby.network.routers323.vnet_1_counter         1621                       (Unspecified)
system.ruby.network.routers323.vnet_2_counter         1873                       (Unspecified)
system.ruby.network.routers331.buffer_reads         9532                       (Unspecified)
system.ruby.network.routers331.buffer_writes         9532                       (Unspecified)
system.ruby.network.routers331.crossbar_activity         9527                       (Unspecified)
system.ruby.network.routers331.forwarded_packets         1564                       (Unspecified)
system.ruby.network.routers331.generated_packets          841                       (Unspecified)
system.ruby.network.routers331.received_packets          871                       (Unspecified)
system.ruby.network.routers331.sw_input_arbiter_activity        10843                       (Unspecified)
system.ruby.network.routers331.sw_output_arbiter_activity         9527                       (Unspecified)
system.ruby.network.routers331.vnet_0_counter         1286                       (Unspecified)
system.ruby.network.routers331.vnet_1_counter          426                       (Unspecified)
system.ruby.network.routers331.vnet_2_counter         1564                       (Unspecified)
system.ruby.network.routers332.buffer_reads         9678                       (Unspecified)
system.ruby.network.routers332.buffer_writes         9678                       (Unspecified)
system.ruby.network.routers332.crossbar_activity         9673                       (Unspecified)
system.ruby.network.routers332.forwarded_packets         1554                       (Unspecified)
system.ruby.network.routers332.generated_packets          869                       (Unspecified)
system.ruby.network.routers332.received_packets          884                       (Unspecified)
system.ruby.network.routers332.sw_input_arbiter_activity        10913                       (Unspecified)
system.ruby.network.routers332.sw_output_arbiter_activity         9673                       (Unspecified)
system.ruby.network.routers332.vnet_0_counter          450                       (Unspecified)
system.ruby.network.routers332.vnet_1_counter         1264                       (Unspecified)
system.ruby.network.routers332.vnet_2_counter         1593                       (Unspecified)
system.ruby.network.routers333.buffer_reads         5352                       (Unspecified)
system.ruby.network.routers333.buffer_writes         5352                       (Unspecified)
system.ruby.network.routers333.crossbar_activity         5354                       (Unspecified)
system.ruby.network.routers333.forwarded_packets            0                       (Unspecified)
system.ruby.network.routers333.generated_packets          897                       (Unspecified)
system.ruby.network.routers333.received_packets          866                       (Unspecified)
system.ruby.network.routers333.sw_input_arbiter_activity         5366                       (Unspecified)
system.ruby.network.routers333.sw_output_arbiter_activity         5354                       (Unspecified)
system.ruby.network.routers333.vnet_0_counter          427                       (Unspecified)
system.ruby.network.routers333.vnet_1_counter          439                       (Unspecified)
system.ruby.network.routers333.vnet_2_counter          897                       (Unspecified)

---------- End Simulation Statistics   ----------
