
---------- Begin Simulation Statistics ----------
simSeconds                                   0.087522                       # Number of seconds simulated (Second)
simTicks                                  87521571501                       # Number of ticks simulated (Tick)
finalTick                                21229742116001                       # Number of ticks from beginning of simulation (restored from checkpoints and never reset) (Tick)
simFreq                                  1000000000000                       # The number of ticks per simulated second ((Tick/Second))
hostSeconds                                   7691.48                       # Real time elapsed on the host (Second)
hostTickRate                                 11379033                       # The number of ticks simulated per host second (ticks/s) ((Tick/Second))
hostMemory                                   40638724                       # Number of bytes of host memory used (Byte)
simInsts                                  11635111670                       # Number of instructions simulated (Count)
simOps                                    11851229898                       # Number of ops (including micro ops) simulated (Count)
hostInstRate                                  1512728                       # Simulator instruction rate (inst/s) ((Count/Second))
hostOpRate                                    1540826                       # Simulator op (including micro ops) rate (op/s) ((Count/Second))
system.clk_domain.clock                          1000                       # Clock period in ticks (Tick)
system.cpu0.numCycles                         4483792                       # Number of cpu cycles simulated (Cycle)
system.cpu0.cpi                           1034.800831                       # CPI: cycles per instruction (core level) ((Cycle/Count))
system.cpu0.ipc                              0.000966                       # IPC: instructions per cycle (core level) ((Count/Cycle))
system.cpu0.numWorkItemsStarted                     0                       # Number of work items this cpu started (Count)
system.cpu0.numWorkItemsCompleted                   0                       # Number of work items this cpu completed (Count)
system.cpu0.numVMExits                              6                       # total number of KVM exits (Count)
system.cpu0.numVMHalfEntries                        0                       # number of KVM entries to finalize pending operations (Count)
system.cpu0.numExitSignal                           2                       # exits due to signal delivery (Count)
system.cpu0.numMMIO                                 2                       # number of VM exits due to memory mapped IO (Count)
system.cpu0.numCoalescedMMIO                        0                       # number of coalesced memory mapped IO requests (Count)
system.cpu0.numIO                                   0                       # number of VM exits due to legacy IO (Count)
system.cpu0.numHalt                                 2                       # number of VM exits due to wait for interrupt instructions (Count)
system.cpu0.numInterrupts                           2                       # number of interrupts delivered (Count)
system.cpu0.numHypercalls                           0                       # number of hypercalls (Count)
system.cpu0.commitStats0.numInsts                4333                       # Number of instructions committed (thread level) (Count)
system.cpu0.commitStats0.numOps                     0                       # Number of ops (including micro ops) committed (thread level) (Count)
system.cpu0.commitStats0.numInstsNotNOP             0                       # Number of instructions committed excluding NOPs or prefetches (Count)
system.cpu0.commitStats0.numOpsNotNOP               0                       # Number of Ops (including micro ops) Simulated (Count)
system.cpu0.commitStats0.cpi              1034.800831                       # CPI: cycles per instruction (thread level) ((Cycle/Count))
system.cpu0.commitStats0.ipc                 0.000966                       # IPC: instructions per cycle (thread level) ((Count/Cycle))
system.cpu0.commitStats0.numMemRefs                 0                       # Number of memory references committed (Count)
system.cpu0.commitStats0.numFpInsts                 0                       # Number of float instructions (Count)
system.cpu0.commitStats0.numIntInsts                0                       # Number of integer instructions (Count)
system.cpu0.commitStats0.numLoadInsts               0                       # Number of load instructions (Count)
system.cpu0.commitStats0.numStoreInsts              0                       # Number of store instructions (Count)
system.cpu0.commitStats0.numVecInsts                0                       # Number of vector instructions (Count)
system.cpu0.commitStats0.committedInstType::No_OpClass            0                       # Class of committed instruction. (Count)
system.cpu0.commitStats0.committedInstType::IntAlu            0                       # Class of committed instruction. (Count)
system.cpu0.commitStats0.committedInstType::IntMult            0                       # Class of committed instruction. (Count)
system.cpu0.commitStats0.committedInstType::IntDiv            0                       # Class of committed instruction. (Count)
system.cpu0.commitStats0.committedInstType::FloatAdd            0                       # Class of committed instruction. (Count)
system.cpu0.commitStats0.committedInstType::FloatCmp            0                       # Class of committed instruction. (Count)
system.cpu0.commitStats0.committedInstType::FloatCvt            0                       # Class of committed instruction. (Count)
system.cpu0.commitStats0.committedInstType::FloatMult            0                       # Class of committed instruction. (Count)
system.cpu0.commitStats0.committedInstType::FloatMultAcc            0                       # Class of committed instruction. (Count)
system.cpu0.commitStats0.committedInstType::FloatDiv            0                       # Class of committed instruction. (Count)
system.cpu0.commitStats0.committedInstType::FloatMisc            0                       # Class of committed instruction. (Count)
system.cpu0.commitStats0.committedInstType::FloatSqrt            0                       # Class of committed instruction. (Count)
system.cpu0.commitStats0.committedInstType::SimdAdd            0                       # Class of committed instruction. (Count)
system.cpu0.commitStats0.committedInstType::SimdAddAcc            0                       # Class of committed instruction. (Count)
system.cpu0.commitStats0.committedInstType::SimdAlu            0                       # Class of committed instruction. (Count)
system.cpu0.commitStats0.committedInstType::SimdCmp            0                       # Class of committed instruction. (Count)
system.cpu0.commitStats0.committedInstType::SimdCvt            0                       # Class of committed instruction. (Count)
system.cpu0.commitStats0.committedInstType::SimdMisc            0                       # Class of committed instruction. (Count)
system.cpu0.commitStats0.committedInstType::SimdMult            0                       # Class of committed instruction. (Count)
system.cpu0.commitStats0.committedInstType::SimdMultAcc            0                       # Class of committed instruction. (Count)
system.cpu0.commitStats0.committedInstType::SimdMatMultAcc            0                       # Class of committed instruction. (Count)
system.cpu0.commitStats0.committedInstType::SimdShift            0                       # Class of committed instruction. (Count)
system.cpu0.commitStats0.committedInstType::SimdShiftAcc            0                       # Class of committed instruction. (Count)
system.cpu0.commitStats0.committedInstType::SimdDiv            0                       # Class of committed instruction. (Count)
system.cpu0.commitStats0.committedInstType::SimdSqrt            0                       # Class of committed instruction. (Count)
system.cpu0.commitStats0.committedInstType::SimdFloatAdd            0                       # Class of committed instruction. (Count)
system.cpu0.commitStats0.committedInstType::SimdFloatAlu            0                       # Class of committed instruction. (Count)
system.cpu0.commitStats0.committedInstType::SimdFloatCmp            0                       # Class of committed instruction. (Count)
system.cpu0.commitStats0.committedInstType::SimdFloatCvt            0                       # Class of committed instruction. (Count)
system.cpu0.commitStats0.committedInstType::SimdFloatDiv            0                       # Class of committed instruction. (Count)
system.cpu0.commitStats0.committedInstType::SimdFloatMisc            0                       # Class of committed instruction. (Count)
system.cpu0.commitStats0.committedInstType::SimdFloatMult            0                       # Class of committed instruction. (Count)
system.cpu0.commitStats0.committedInstType::SimdFloatMultAcc            0                       # Class of committed instruction. (Count)
system.cpu0.commitStats0.committedInstType::SimdFloatMatMultAcc            0                       # Class of committed instruction. (Count)
system.cpu0.commitStats0.committedInstType::SimdFloatSqrt            0                       # Class of committed instruction. (Count)
system.cpu0.commitStats0.committedInstType::SimdReduceAdd            0                       # Class of committed instruction. (Count)
system.cpu0.commitStats0.committedInstType::SimdReduceAlu            0                       # Class of committed instruction. (Count)
system.cpu0.commitStats0.committedInstType::SimdReduceCmp            0                       # Class of committed instruction. (Count)
system.cpu0.commitStats0.committedInstType::SimdFloatReduceAdd            0                       # Class of committed instruction. (Count)
system.cpu0.commitStats0.committedInstType::SimdFloatReduceCmp            0                       # Class of committed instruction. (Count)
system.cpu0.commitStats0.committedInstType::SimdAes            0                       # Class of committed instruction. (Count)
system.cpu0.commitStats0.committedInstType::SimdAesMix            0                       # Class of committed instruction. (Count)
system.cpu0.commitStats0.committedInstType::SimdSha1Hash            0                       # Class of committed instruction. (Count)
system.cpu0.commitStats0.committedInstType::SimdSha1Hash2            0                       # Class of committed instruction. (Count)
system.cpu0.commitStats0.committedInstType::SimdSha256Hash            0                       # Class of committed instruction. (Count)
system.cpu0.commitStats0.committedInstType::SimdSha256Hash2            0                       # Class of committed instruction. (Count)
system.cpu0.commitStats0.committedInstType::SimdShaSigma2            0                       # Class of committed instruction. (Count)
system.cpu0.commitStats0.committedInstType::SimdShaSigma3            0                       # Class of committed instruction. (Count)
system.cpu0.commitStats0.committedInstType::SimdPredAlu            0                       # Class of committed instruction. (Count)
system.cpu0.commitStats0.committedInstType::Matrix            0                       # Class of committed instruction. (Count)
system.cpu0.commitStats0.committedInstType::MatrixMov            0                       # Class of committed instruction. (Count)
system.cpu0.commitStats0.committedInstType::MatrixOP            0                       # Class of committed instruction. (Count)
system.cpu0.commitStats0.committedInstType::MemRead            0                       # Class of committed instruction. (Count)
system.cpu0.commitStats0.committedInstType::MemWrite            0                       # Class of committed instruction. (Count)
system.cpu0.commitStats0.committedInstType::FloatMemRead            0                       # Class of committed instruction. (Count)
system.cpu0.commitStats0.committedInstType::FloatMemWrite            0                       # Class of committed instruction. (Count)
system.cpu0.commitStats0.committedInstType::IprAccess            0                       # Class of committed instruction. (Count)
system.cpu0.commitStats0.committedInstType::InstPrefetch            0                       # Class of committed instruction. (Count)
system.cpu0.commitStats0.committedInstType::VectorUnitStrideLoad            0                       # Class of committed instruction. (Count)
system.cpu0.commitStats0.committedInstType::VectorUnitStrideStore            0                       # Class of committed instruction. (Count)
system.cpu0.commitStats0.committedInstType::VectorUnitStrideMaskLoad            0                       # Class of committed instruction. (Count)
system.cpu0.commitStats0.committedInstType::VectorUnitStrideMaskStore            0                       # Class of committed instruction. (Count)
system.cpu0.commitStats0.committedInstType::VectorStridedLoad            0                       # Class of committed instruction. (Count)
system.cpu0.commitStats0.committedInstType::VectorStridedStore            0                       # Class of committed instruction. (Count)
system.cpu0.commitStats0.committedInstType::VectorIndexedLoad            0                       # Class of committed instruction. (Count)
system.cpu0.commitStats0.committedInstType::VectorIndexedStore            0                       # Class of committed instruction. (Count)
system.cpu0.commitStats0.committedInstType::VectorUnitStrideFaultOnlyFirstLoad            0                       # Class of committed instruction. (Count)
system.cpu0.commitStats0.committedInstType::VectorWholeRegisterLoad            0                       # Class of committed instruction. (Count)
system.cpu0.commitStats0.committedInstType::VectorWholeRegisterStore            0                       # Class of committed instruction. (Count)
system.cpu0.commitStats0.committedInstType::VectorIntegerArith            0                       # Class of committed instruction. (Count)
system.cpu0.commitStats0.committedInstType::VectorFloatArith            0                       # Class of committed instruction. (Count)
system.cpu0.commitStats0.committedInstType::VectorFloatConvert            0                       # Class of committed instruction. (Count)
system.cpu0.commitStats0.committedInstType::VectorIntegerReduce            0                       # Class of committed instruction. (Count)
system.cpu0.commitStats0.committedInstType::VectorFloatReduce            0                       # Class of committed instruction. (Count)
system.cpu0.commitStats0.committedInstType::VectorMisc            0                       # Class of committed instruction. (Count)
system.cpu0.commitStats0.committedInstType::VectorIntegerExtension            0                       # Class of committed instruction. (Count)
system.cpu0.commitStats0.committedInstType::VectorConfig            0                       # Class of committed instruction. (Count)
system.cpu0.commitStats0.committedInstType::total            0                       # Class of committed instruction. (Count)
system.cpu0.executeStats0.numInsts                  0                       # Number of executed instructions (Count)
system.cpu0.executeStats0.numNop                    0                       # Number of nop insts executed (Count)
system.cpu0.executeStats0.numBranches               0                       # Number of branches executed (Count)
system.cpu0.executeStats0.numLoadInsts              0                       # Number of load instructions executed (Count)
system.cpu0.executeStats0.numStoreInsts             0                       # Number of stores executed (Count)
system.cpu0.executeStats0.instRate                  0                       # Inst execution rate ((Count/Cycle))
system.cpu0.executeStats0.numFpRegWrites            0                       # Number of times the floating registers were written (Count)
system.cpu0.executeStats0.numMemRefs                0                       # Number of memory refs (Count)
system.cpu0.executeStats0.numVecAluAccesses            0                       # Number of vector alu accesses (Count)
system.cpu0.executeStats0.numDiscardedOps            0                       # Number of ops (including micro ops) which were discarded before commit (Count)
system.cpu0.fetchStats0.numInsts                    0                       # Number of instructions fetched (thread level) (Count)
system.cpu0.fetchStats0.numOps                      0                       # Number of ops (including micro ops) fetched (thread level) (Count)
system.cpu0.fetchStats0.fetchRate                   0                       # Number of inst fetches per cycle ((Count/Cycle))
system.cpu0.fetchStats0.branchRate                  0                       # Number of branch fetches per cycle (Ratio)
system.cpu0.fetchStats0.numFetchSuspends            0                       # Number of times Execute suspended instruction fetching (Count)
system.cpu0.interrupts.clk_domain.clock          8000                       # Clock period in ticks (Tick)
system.cpu0.mmu.dtb.rdAccesses                      0                       # TLB accesses on read requests (Count)
system.cpu0.mmu.dtb.wrAccesses                      0                       # TLB accesses on write requests (Count)
system.cpu0.mmu.dtb.rdMisses                        0                       # TLB misses on read requests (Count)
system.cpu0.mmu.dtb.wrMisses                        0                       # TLB misses on write requests (Count)
system.cpu0.mmu.dtb.walker.power_state.pwrStateResidencyTicks::UNDEFINED 21229742116001                       # Cumulative time (in ticks) in various power states (Tick)
system.cpu0.mmu.itb.rdAccesses                      0                       # TLB accesses on read requests (Count)
system.cpu0.mmu.itb.wrAccesses                      0                       # TLB accesses on write requests (Count)
system.cpu0.mmu.itb.rdMisses                        0                       # TLB misses on read requests (Count)
system.cpu0.mmu.itb.wrMisses                        0                       # TLB misses on write requests (Count)
system.cpu0.mmu.itb.walker.power_state.pwrStateResidencyTicks::UNDEFINED 21229742116001                       # Cumulative time (in ticks) in various power states (Tick)
system.cpu0.power_state.numTransitions              1                       # Number of power state transitions (Count)
system.cpu0.power_state.pwrStateResidencyTicks::ON 21144446698000                       # Cumulative time (in ticks) in various power states (Tick)
system.cpu0.power_state.pwrStateResidencyTicks::OFF  85295418001                       # Cumulative time (in ticks) in various power states (Tick)
system.cpu0.thread_0.numInsts                       0                       # Number of Instructions committed (Count)
system.cpu0.thread_0.numOps                         0                       # Number of Ops committed (Count)
system.cpu0.thread_0.numMemRefs                     0                       # Number of Memory References (Count)
system.cpu1.numCycles                         2535312                       # Number of cpu cycles simulated (Cycle)
system.cpu1.cpi                            741.102602                       # CPI: cycles per instruction (core level) ((Cycle/Count))
system.cpu1.ipc                              0.001349                       # IPC: instructions per cycle (core level) ((Count/Cycle))
system.cpu1.numWorkItemsStarted                     0                       # Number of work items this cpu started (Count)
system.cpu1.numWorkItemsCompleted                   0                       # Number of work items this cpu completed (Count)
system.cpu1.numVMExits                              6                       # total number of KVM exits (Count)
system.cpu1.numVMHalfEntries                        0                       # number of KVM entries to finalize pending operations (Count)
system.cpu1.numExitSignal                           2                       # exits due to signal delivery (Count)
system.cpu1.numMMIO                                 2                       # number of VM exits due to memory mapped IO (Count)
system.cpu1.numCoalescedMMIO                        0                       # number of coalesced memory mapped IO requests (Count)
system.cpu1.numIO                                   0                       # number of VM exits due to legacy IO (Count)
system.cpu1.numHalt                                 2                       # number of VM exits due to wait for interrupt instructions (Count)
system.cpu1.numInterrupts                           2                       # number of interrupts delivered (Count)
system.cpu1.numHypercalls                           0                       # number of hypercalls (Count)
system.cpu1.commitStats0.numInsts                3421                       # Number of instructions committed (thread level) (Count)
system.cpu1.commitStats0.numOps                     0                       # Number of ops (including micro ops) committed (thread level) (Count)
system.cpu1.commitStats0.numInstsNotNOP             0                       # Number of instructions committed excluding NOPs or prefetches (Count)
system.cpu1.commitStats0.numOpsNotNOP               0                       # Number of Ops (including micro ops) Simulated (Count)
system.cpu1.commitStats0.cpi               741.102602                       # CPI: cycles per instruction (thread level) ((Cycle/Count))
system.cpu1.commitStats0.ipc                 0.001349                       # IPC: instructions per cycle (thread level) ((Count/Cycle))
system.cpu1.commitStats0.numMemRefs                 0                       # Number of memory references committed (Count)
system.cpu1.commitStats0.numFpInsts                 0                       # Number of float instructions (Count)
system.cpu1.commitStats0.numIntInsts                0                       # Number of integer instructions (Count)
system.cpu1.commitStats0.numLoadInsts               0                       # Number of load instructions (Count)
system.cpu1.commitStats0.numStoreInsts              0                       # Number of store instructions (Count)
system.cpu1.commitStats0.numVecInsts                0                       # Number of vector instructions (Count)
system.cpu1.commitStats0.committedInstType::No_OpClass            0                       # Class of committed instruction. (Count)
system.cpu1.commitStats0.committedInstType::IntAlu            0                       # Class of committed instruction. (Count)
system.cpu1.commitStats0.committedInstType::IntMult            0                       # Class of committed instruction. (Count)
system.cpu1.commitStats0.committedInstType::IntDiv            0                       # Class of committed instruction. (Count)
system.cpu1.commitStats0.committedInstType::FloatAdd            0                       # Class of committed instruction. (Count)
system.cpu1.commitStats0.committedInstType::FloatCmp            0                       # Class of committed instruction. (Count)
system.cpu1.commitStats0.committedInstType::FloatCvt            0                       # Class of committed instruction. (Count)
system.cpu1.commitStats0.committedInstType::FloatMult            0                       # Class of committed instruction. (Count)
system.cpu1.commitStats0.committedInstType::FloatMultAcc            0                       # Class of committed instruction. (Count)
system.cpu1.commitStats0.committedInstType::FloatDiv            0                       # Class of committed instruction. (Count)
system.cpu1.commitStats0.committedInstType::FloatMisc            0                       # Class of committed instruction. (Count)
system.cpu1.commitStats0.committedInstType::FloatSqrt            0                       # Class of committed instruction. (Count)
system.cpu1.commitStats0.committedInstType::SimdAdd            0                       # Class of committed instruction. (Count)
system.cpu1.commitStats0.committedInstType::SimdAddAcc            0                       # Class of committed instruction. (Count)
system.cpu1.commitStats0.committedInstType::SimdAlu            0                       # Class of committed instruction. (Count)
system.cpu1.commitStats0.committedInstType::SimdCmp            0                       # Class of committed instruction. (Count)
system.cpu1.commitStats0.committedInstType::SimdCvt            0                       # Class of committed instruction. (Count)
system.cpu1.commitStats0.committedInstType::SimdMisc            0                       # Class of committed instruction. (Count)
system.cpu1.commitStats0.committedInstType::SimdMult            0                       # Class of committed instruction. (Count)
system.cpu1.commitStats0.committedInstType::SimdMultAcc            0                       # Class of committed instruction. (Count)
system.cpu1.commitStats0.committedInstType::SimdMatMultAcc            0                       # Class of committed instruction. (Count)
system.cpu1.commitStats0.committedInstType::SimdShift            0                       # Class of committed instruction. (Count)
system.cpu1.commitStats0.committedInstType::SimdShiftAcc            0                       # Class of committed instruction. (Count)
system.cpu1.commitStats0.committedInstType::SimdDiv            0                       # Class of committed instruction. (Count)
system.cpu1.commitStats0.committedInstType::SimdSqrt            0                       # Class of committed instruction. (Count)
system.cpu1.commitStats0.committedInstType::SimdFloatAdd            0                       # Class of committed instruction. (Count)
system.cpu1.commitStats0.committedInstType::SimdFloatAlu            0                       # Class of committed instruction. (Count)
system.cpu1.commitStats0.committedInstType::SimdFloatCmp            0                       # Class of committed instruction. (Count)
system.cpu1.commitStats0.committedInstType::SimdFloatCvt            0                       # Class of committed instruction. (Count)
system.cpu1.commitStats0.committedInstType::SimdFloatDiv            0                       # Class of committed instruction. (Count)
system.cpu1.commitStats0.committedInstType::SimdFloatMisc            0                       # Class of committed instruction. (Count)
system.cpu1.commitStats0.committedInstType::SimdFloatMult            0                       # Class of committed instruction. (Count)
system.cpu1.commitStats0.committedInstType::SimdFloatMultAcc            0                       # Class of committed instruction. (Count)
system.cpu1.commitStats0.committedInstType::SimdFloatMatMultAcc            0                       # Class of committed instruction. (Count)
system.cpu1.commitStats0.committedInstType::SimdFloatSqrt            0                       # Class of committed instruction. (Count)
system.cpu1.commitStats0.committedInstType::SimdReduceAdd            0                       # Class of committed instruction. (Count)
system.cpu1.commitStats0.committedInstType::SimdReduceAlu            0                       # Class of committed instruction. (Count)
system.cpu1.commitStats0.committedInstType::SimdReduceCmp            0                       # Class of committed instruction. (Count)
system.cpu1.commitStats0.committedInstType::SimdFloatReduceAdd            0                       # Class of committed instruction. (Count)
system.cpu1.commitStats0.committedInstType::SimdFloatReduceCmp            0                       # Class of committed instruction. (Count)
system.cpu1.commitStats0.committedInstType::SimdAes            0                       # Class of committed instruction. (Count)
system.cpu1.commitStats0.committedInstType::SimdAesMix            0                       # Class of committed instruction. (Count)
system.cpu1.commitStats0.committedInstType::SimdSha1Hash            0                       # Class of committed instruction. (Count)
system.cpu1.commitStats0.committedInstType::SimdSha1Hash2            0                       # Class of committed instruction. (Count)
system.cpu1.commitStats0.committedInstType::SimdSha256Hash            0                       # Class of committed instruction. (Count)
system.cpu1.commitStats0.committedInstType::SimdSha256Hash2            0                       # Class of committed instruction. (Count)
system.cpu1.commitStats0.committedInstType::SimdShaSigma2            0                       # Class of committed instruction. (Count)
system.cpu1.commitStats0.committedInstType::SimdShaSigma3            0                       # Class of committed instruction. (Count)
system.cpu1.commitStats0.committedInstType::SimdPredAlu            0                       # Class of committed instruction. (Count)
system.cpu1.commitStats0.committedInstType::Matrix            0                       # Class of committed instruction. (Count)
system.cpu1.commitStats0.committedInstType::MatrixMov            0                       # Class of committed instruction. (Count)
system.cpu1.commitStats0.committedInstType::MatrixOP            0                       # Class of committed instruction. (Count)
system.cpu1.commitStats0.committedInstType::MemRead            0                       # Class of committed instruction. (Count)
system.cpu1.commitStats0.committedInstType::MemWrite            0                       # Class of committed instruction. (Count)
system.cpu1.commitStats0.committedInstType::FloatMemRead            0                       # Class of committed instruction. (Count)
system.cpu1.commitStats0.committedInstType::FloatMemWrite            0                       # Class of committed instruction. (Count)
system.cpu1.commitStats0.committedInstType::IprAccess            0                       # Class of committed instruction. (Count)
system.cpu1.commitStats0.committedInstType::InstPrefetch            0                       # Class of committed instruction. (Count)
system.cpu1.commitStats0.committedInstType::VectorUnitStrideLoad            0                       # Class of committed instruction. (Count)
system.cpu1.commitStats0.committedInstType::VectorUnitStrideStore            0                       # Class of committed instruction. (Count)
system.cpu1.commitStats0.committedInstType::VectorUnitStrideMaskLoad            0                       # Class of committed instruction. (Count)
system.cpu1.commitStats0.committedInstType::VectorUnitStrideMaskStore            0                       # Class of committed instruction. (Count)
system.cpu1.commitStats0.committedInstType::VectorStridedLoad            0                       # Class of committed instruction. (Count)
system.cpu1.commitStats0.committedInstType::VectorStridedStore            0                       # Class of committed instruction. (Count)
system.cpu1.commitStats0.committedInstType::VectorIndexedLoad            0                       # Class of committed instruction. (Count)
system.cpu1.commitStats0.committedInstType::VectorIndexedStore            0                       # Class of committed instruction. (Count)
system.cpu1.commitStats0.committedInstType::VectorUnitStrideFaultOnlyFirstLoad            0                       # Class of committed instruction. (Count)
system.cpu1.commitStats0.committedInstType::VectorWholeRegisterLoad            0                       # Class of committed instruction. (Count)
system.cpu1.commitStats0.committedInstType::VectorWholeRegisterStore            0                       # Class of committed instruction. (Count)
system.cpu1.commitStats0.committedInstType::VectorIntegerArith            0                       # Class of committed instruction. (Count)
system.cpu1.commitStats0.committedInstType::VectorFloatArith            0                       # Class of committed instruction. (Count)
system.cpu1.commitStats0.committedInstType::VectorFloatConvert            0                       # Class of committed instruction. (Count)
system.cpu1.commitStats0.committedInstType::VectorIntegerReduce            0                       # Class of committed instruction. (Count)
system.cpu1.commitStats0.committedInstType::VectorFloatReduce            0                       # Class of committed instruction. (Count)
system.cpu1.commitStats0.committedInstType::VectorMisc            0                       # Class of committed instruction. (Count)
system.cpu1.commitStats0.committedInstType::VectorIntegerExtension            0                       # Class of committed instruction. (Count)
system.cpu1.commitStats0.committedInstType::VectorConfig            0                       # Class of committed instruction. (Count)
system.cpu1.commitStats0.committedInstType::total            0                       # Class of committed instruction. (Count)
system.cpu1.executeStats0.numInsts                  0                       # Number of executed instructions (Count)
system.cpu1.executeStats0.numNop                    0                       # Number of nop insts executed (Count)
system.cpu1.executeStats0.numBranches               0                       # Number of branches executed (Count)
system.cpu1.executeStats0.numLoadInsts              0                       # Number of load instructions executed (Count)
system.cpu1.executeStats0.numStoreInsts             0                       # Number of stores executed (Count)
system.cpu1.executeStats0.instRate                  0                       # Inst execution rate ((Count/Cycle))
system.cpu1.executeStats0.numFpRegWrites            0                       # Number of times the floating registers were written (Count)
system.cpu1.executeStats0.numMemRefs                0                       # Number of memory refs (Count)
system.cpu1.executeStats0.numVecAluAccesses            0                       # Number of vector alu accesses (Count)
system.cpu1.executeStats0.numDiscardedOps            0                       # Number of ops (including micro ops) which were discarded before commit (Count)
system.cpu1.fetchStats0.numInsts                    0                       # Number of instructions fetched (thread level) (Count)
system.cpu1.fetchStats0.numOps                      0                       # Number of ops (including micro ops) fetched (thread level) (Count)
system.cpu1.fetchStats0.fetchRate                   0                       # Number of inst fetches per cycle ((Count/Cycle))
system.cpu1.fetchStats0.branchRate                  0                       # Number of branch fetches per cycle (Ratio)
system.cpu1.fetchStats0.numFetchSuspends            0                       # Number of times Execute suspended instruction fetching (Count)
system.cpu1.interrupts.clk_domain.clock          8000                       # Clock period in ticks (Tick)
system.cpu1.mmu.dtb.rdAccesses                      0                       # TLB accesses on read requests (Count)
system.cpu1.mmu.dtb.wrAccesses                      0                       # TLB accesses on write requests (Count)
system.cpu1.mmu.dtb.rdMisses                        0                       # TLB misses on read requests (Count)
system.cpu1.mmu.dtb.wrMisses                        0                       # TLB misses on write requests (Count)
system.cpu1.mmu.dtb.walker.power_state.pwrStateResidencyTicks::UNDEFINED 21229742116001                       # Cumulative time (in ticks) in various power states (Tick)
system.cpu1.mmu.itb.rdAccesses                      0                       # TLB accesses on read requests (Count)
system.cpu1.mmu.itb.wrAccesses                      0                       # TLB accesses on write requests (Count)
system.cpu1.mmu.itb.rdMisses                        0                       # TLB misses on read requests (Count)
system.cpu1.mmu.itb.wrMisses                        0                       # TLB misses on write requests (Count)
system.cpu1.mmu.itb.walker.power_state.pwrStateResidencyTicks::UNDEFINED 21229742116001                       # Cumulative time (in ticks) in various power states (Tick)
system.cpu1.power_state.numTransitions              1                       # Number of power state transitions (Count)
system.cpu1.power_state.pwrStateResidencyTicks::ON 21144446698000                       # Cumulative time (in ticks) in various power states (Tick)
system.cpu1.power_state.pwrStateResidencyTicks::OFF  85295418001                       # Cumulative time (in ticks) in various power states (Tick)
system.cpu1.thread_0.numInsts                       0                       # Number of Instructions committed (Count)
system.cpu1.thread_0.numOps                         0                       # Number of Ops committed (Count)
system.cpu1.thread_0.numMemRefs                     0                       # Number of Memory References (Count)
system.cpu10.numCycles                        2614208                       # Number of cpu cycles simulated (Cycle)
system.cpu10.cpi                         23765.527273                       # CPI: cycles per instruction (core level) ((Cycle/Count))
system.cpu10.ipc                             0.000042                       # IPC: instructions per cycle (core level) ((Count/Cycle))
system.cpu10.numWorkItemsStarted                    0                       # Number of work items this cpu started (Count)
system.cpu10.numWorkItemsCompleted                  0                       # Number of work items this cpu completed (Count)
system.cpu10.numVMExits                             5                       # total number of KVM exits (Count)
system.cpu10.numVMHalfEntries                       1                       # number of KVM entries to finalize pending operations (Count)
system.cpu10.numExitSignal                          4                       # exits due to signal delivery (Count)
system.cpu10.numMMIO                                1                       # number of VM exits due to memory mapped IO (Count)
system.cpu10.numCoalescedMMIO                       0                       # number of coalesced memory mapped IO requests (Count)
system.cpu10.numIO                                  0                       # number of VM exits due to legacy IO (Count)
system.cpu10.numHalt                                0                       # number of VM exits due to wait for interrupt instructions (Count)
system.cpu10.numInterrupts                          1                       # number of interrupts delivered (Count)
system.cpu10.numHypercalls                          0                       # number of hypercalls (Count)
system.cpu10.commitStats0.numInsts                110                       # Number of instructions committed (thread level) (Count)
system.cpu10.commitStats0.numOps                    0                       # Number of ops (including micro ops) committed (thread level) (Count)
system.cpu10.commitStats0.numInstsNotNOP            0                       # Number of instructions committed excluding NOPs or prefetches (Count)
system.cpu10.commitStats0.numOpsNotNOP              0                       # Number of Ops (including micro ops) Simulated (Count)
system.cpu10.commitStats0.cpi            23765.527273                       # CPI: cycles per instruction (thread level) ((Cycle/Count))
system.cpu10.commitStats0.ipc                0.000042                       # IPC: instructions per cycle (thread level) ((Count/Cycle))
system.cpu10.commitStats0.numMemRefs                0                       # Number of memory references committed (Count)
system.cpu10.commitStats0.numFpInsts                0                       # Number of float instructions (Count)
system.cpu10.commitStats0.numIntInsts               0                       # Number of integer instructions (Count)
system.cpu10.commitStats0.numLoadInsts              0                       # Number of load instructions (Count)
system.cpu10.commitStats0.numStoreInsts             0                       # Number of store instructions (Count)
system.cpu10.commitStats0.numVecInsts               0                       # Number of vector instructions (Count)
system.cpu10.commitStats0.committedInstType::No_OpClass            0                       # Class of committed instruction. (Count)
system.cpu10.commitStats0.committedInstType::IntAlu            0                       # Class of committed instruction. (Count)
system.cpu10.commitStats0.committedInstType::IntMult            0                       # Class of committed instruction. (Count)
system.cpu10.commitStats0.committedInstType::IntDiv            0                       # Class of committed instruction. (Count)
system.cpu10.commitStats0.committedInstType::FloatAdd            0                       # Class of committed instruction. (Count)
system.cpu10.commitStats0.committedInstType::FloatCmp            0                       # Class of committed instruction. (Count)
system.cpu10.commitStats0.committedInstType::FloatCvt            0                       # Class of committed instruction. (Count)
system.cpu10.commitStats0.committedInstType::FloatMult            0                       # Class of committed instruction. (Count)
system.cpu10.commitStats0.committedInstType::FloatMultAcc            0                       # Class of committed instruction. (Count)
system.cpu10.commitStats0.committedInstType::FloatDiv            0                       # Class of committed instruction. (Count)
system.cpu10.commitStats0.committedInstType::FloatMisc            0                       # Class of committed instruction. (Count)
system.cpu10.commitStats0.committedInstType::FloatSqrt            0                       # Class of committed instruction. (Count)
system.cpu10.commitStats0.committedInstType::SimdAdd            0                       # Class of committed instruction. (Count)
system.cpu10.commitStats0.committedInstType::SimdAddAcc            0                       # Class of committed instruction. (Count)
system.cpu10.commitStats0.committedInstType::SimdAlu            0                       # Class of committed instruction. (Count)
system.cpu10.commitStats0.committedInstType::SimdCmp            0                       # Class of committed instruction. (Count)
system.cpu10.commitStats0.committedInstType::SimdCvt            0                       # Class of committed instruction. (Count)
system.cpu10.commitStats0.committedInstType::SimdMisc            0                       # Class of committed instruction. (Count)
system.cpu10.commitStats0.committedInstType::SimdMult            0                       # Class of committed instruction. (Count)
system.cpu10.commitStats0.committedInstType::SimdMultAcc            0                       # Class of committed instruction. (Count)
system.cpu10.commitStats0.committedInstType::SimdMatMultAcc            0                       # Class of committed instruction. (Count)
system.cpu10.commitStats0.committedInstType::SimdShift            0                       # Class of committed instruction. (Count)
system.cpu10.commitStats0.committedInstType::SimdShiftAcc            0                       # Class of committed instruction. (Count)
system.cpu10.commitStats0.committedInstType::SimdDiv            0                       # Class of committed instruction. (Count)
system.cpu10.commitStats0.committedInstType::SimdSqrt            0                       # Class of committed instruction. (Count)
system.cpu10.commitStats0.committedInstType::SimdFloatAdd            0                       # Class of committed instruction. (Count)
system.cpu10.commitStats0.committedInstType::SimdFloatAlu            0                       # Class of committed instruction. (Count)
system.cpu10.commitStats0.committedInstType::SimdFloatCmp            0                       # Class of committed instruction. (Count)
system.cpu10.commitStats0.committedInstType::SimdFloatCvt            0                       # Class of committed instruction. (Count)
system.cpu10.commitStats0.committedInstType::SimdFloatDiv            0                       # Class of committed instruction. (Count)
system.cpu10.commitStats0.committedInstType::SimdFloatMisc            0                       # Class of committed instruction. (Count)
system.cpu10.commitStats0.committedInstType::SimdFloatMult            0                       # Class of committed instruction. (Count)
system.cpu10.commitStats0.committedInstType::SimdFloatMultAcc            0                       # Class of committed instruction. (Count)
system.cpu10.commitStats0.committedInstType::SimdFloatMatMultAcc            0                       # Class of committed instruction. (Count)
system.cpu10.commitStats0.committedInstType::SimdFloatSqrt            0                       # Class of committed instruction. (Count)
system.cpu10.commitStats0.committedInstType::SimdReduceAdd            0                       # Class of committed instruction. (Count)
system.cpu10.commitStats0.committedInstType::SimdReduceAlu            0                       # Class of committed instruction. (Count)
system.cpu10.commitStats0.committedInstType::SimdReduceCmp            0                       # Class of committed instruction. (Count)
system.cpu10.commitStats0.committedInstType::SimdFloatReduceAdd            0                       # Class of committed instruction. (Count)
system.cpu10.commitStats0.committedInstType::SimdFloatReduceCmp            0                       # Class of committed instruction. (Count)
system.cpu10.commitStats0.committedInstType::SimdAes            0                       # Class of committed instruction. (Count)
system.cpu10.commitStats0.committedInstType::SimdAesMix            0                       # Class of committed instruction. (Count)
system.cpu10.commitStats0.committedInstType::SimdSha1Hash            0                       # Class of committed instruction. (Count)
system.cpu10.commitStats0.committedInstType::SimdSha1Hash2            0                       # Class of committed instruction. (Count)
system.cpu10.commitStats0.committedInstType::SimdSha256Hash            0                       # Class of committed instruction. (Count)
system.cpu10.commitStats0.committedInstType::SimdSha256Hash2            0                       # Class of committed instruction. (Count)
system.cpu10.commitStats0.committedInstType::SimdShaSigma2            0                       # Class of committed instruction. (Count)
system.cpu10.commitStats0.committedInstType::SimdShaSigma3            0                       # Class of committed instruction. (Count)
system.cpu10.commitStats0.committedInstType::SimdPredAlu            0                       # Class of committed instruction. (Count)
system.cpu10.commitStats0.committedInstType::Matrix            0                       # Class of committed instruction. (Count)
system.cpu10.commitStats0.committedInstType::MatrixMov            0                       # Class of committed instruction. (Count)
system.cpu10.commitStats0.committedInstType::MatrixOP            0                       # Class of committed instruction. (Count)
system.cpu10.commitStats0.committedInstType::MemRead            0                       # Class of committed instruction. (Count)
system.cpu10.commitStats0.committedInstType::MemWrite            0                       # Class of committed instruction. (Count)
system.cpu10.commitStats0.committedInstType::FloatMemRead            0                       # Class of committed instruction. (Count)
system.cpu10.commitStats0.committedInstType::FloatMemWrite            0                       # Class of committed instruction. (Count)
system.cpu10.commitStats0.committedInstType::IprAccess            0                       # Class of committed instruction. (Count)
system.cpu10.commitStats0.committedInstType::InstPrefetch            0                       # Class of committed instruction. (Count)
system.cpu10.commitStats0.committedInstType::VectorUnitStrideLoad            0                       # Class of committed instruction. (Count)
system.cpu10.commitStats0.committedInstType::VectorUnitStrideStore            0                       # Class of committed instruction. (Count)
system.cpu10.commitStats0.committedInstType::VectorUnitStrideMaskLoad            0                       # Class of committed instruction. (Count)
system.cpu10.commitStats0.committedInstType::VectorUnitStrideMaskStore            0                       # Class of committed instruction. (Count)
system.cpu10.commitStats0.committedInstType::VectorStridedLoad            0                       # Class of committed instruction. (Count)
system.cpu10.commitStats0.committedInstType::VectorStridedStore            0                       # Class of committed instruction. (Count)
system.cpu10.commitStats0.committedInstType::VectorIndexedLoad            0                       # Class of committed instruction. (Count)
system.cpu10.commitStats0.committedInstType::VectorIndexedStore            0                       # Class of committed instruction. (Count)
system.cpu10.commitStats0.committedInstType::VectorUnitStrideFaultOnlyFirstLoad            0                       # Class of committed instruction. (Count)
system.cpu10.commitStats0.committedInstType::VectorWholeRegisterLoad            0                       # Class of committed instruction. (Count)
system.cpu10.commitStats0.committedInstType::VectorWholeRegisterStore            0                       # Class of committed instruction. (Count)
system.cpu10.commitStats0.committedInstType::VectorIntegerArith            0                       # Class of committed instruction. (Count)
system.cpu10.commitStats0.committedInstType::VectorFloatArith            0                       # Class of committed instruction. (Count)
system.cpu10.commitStats0.committedInstType::VectorFloatConvert            0                       # Class of committed instruction. (Count)
system.cpu10.commitStats0.committedInstType::VectorIntegerReduce            0                       # Class of committed instruction. (Count)
system.cpu10.commitStats0.committedInstType::VectorFloatReduce            0                       # Class of committed instruction. (Count)
system.cpu10.commitStats0.committedInstType::VectorMisc            0                       # Class of committed instruction. (Count)
system.cpu10.commitStats0.committedInstType::VectorIntegerExtension            0                       # Class of committed instruction. (Count)
system.cpu10.commitStats0.committedInstType::VectorConfig            0                       # Class of committed instruction. (Count)
system.cpu10.commitStats0.committedInstType::total            0                       # Class of committed instruction. (Count)
system.cpu10.executeStats0.numInsts                 0                       # Number of executed instructions (Count)
system.cpu10.executeStats0.numNop                   0                       # Number of nop insts executed (Count)
system.cpu10.executeStats0.numBranches              0                       # Number of branches executed (Count)
system.cpu10.executeStats0.numLoadInsts             0                       # Number of load instructions executed (Count)
system.cpu10.executeStats0.numStoreInsts            0                       # Number of stores executed (Count)
system.cpu10.executeStats0.instRate                 0                       # Inst execution rate ((Count/Cycle))
system.cpu10.executeStats0.numFpRegWrites            0                       # Number of times the floating registers were written (Count)
system.cpu10.executeStats0.numMemRefs               0                       # Number of memory refs (Count)
system.cpu10.executeStats0.numVecAluAccesses            0                       # Number of vector alu accesses (Count)
system.cpu10.executeStats0.numDiscardedOps            0                       # Number of ops (including micro ops) which were discarded before commit (Count)
system.cpu10.fetchStats0.numInsts                   0                       # Number of instructions fetched (thread level) (Count)
system.cpu10.fetchStats0.numOps                     0                       # Number of ops (including micro ops) fetched (thread level) (Count)
system.cpu10.fetchStats0.fetchRate                  0                       # Number of inst fetches per cycle ((Count/Cycle))
system.cpu10.fetchStats0.branchRate                 0                       # Number of branch fetches per cycle (Ratio)
system.cpu10.fetchStats0.numFetchSuspends            0                       # Number of times Execute suspended instruction fetching (Count)
system.cpu10.interrupts.clk_domain.clock         8000                       # Clock period in ticks (Tick)
system.cpu10.mmu.dtb.rdAccesses                     0                       # TLB accesses on read requests (Count)
system.cpu10.mmu.dtb.wrAccesses                     0                       # TLB accesses on write requests (Count)
system.cpu10.mmu.dtb.rdMisses                       0                       # TLB misses on read requests (Count)
system.cpu10.mmu.dtb.wrMisses                       0                       # TLB misses on write requests (Count)
system.cpu10.mmu.dtb.walker.power_state.pwrStateResidencyTicks::UNDEFINED 21229742116001                       # Cumulative time (in ticks) in various power states (Tick)
system.cpu10.mmu.itb.rdAccesses                     0                       # TLB accesses on read requests (Count)
system.cpu10.mmu.itb.wrAccesses                     0                       # TLB accesses on write requests (Count)
system.cpu10.mmu.itb.rdMisses                       0                       # TLB misses on read requests (Count)
system.cpu10.mmu.itb.wrMisses                       0                       # TLB misses on write requests (Count)
system.cpu10.mmu.itb.walker.power_state.pwrStateResidencyTicks::UNDEFINED 21229742116001                       # Cumulative time (in ticks) in various power states (Tick)
system.cpu10.power_state.numTransitions             1                       # Number of power state transitions (Count)
system.cpu10.power_state.pwrStateResidencyTicks::ON 21144446698000                       # Cumulative time (in ticks) in various power states (Tick)
system.cpu10.power_state.pwrStateResidencyTicks::OFF  85295418001                       # Cumulative time (in ticks) in various power states (Tick)
system.cpu10.thread_0.numInsts                      0                       # Number of Instructions committed (Count)
system.cpu10.thread_0.numOps                        0                       # Number of Ops committed (Count)
system.cpu10.thread_0.numMemRefs                    0                       # Number of Memory References (Count)
system.cpu11.numCycles                              0                       # Number of cpu cycles simulated (Cycle)
system.cpu11.cpi                                  nan                       # CPI: cycles per instruction (core level) ((Cycle/Count))
system.cpu11.ipc                                  nan                       # IPC: instructions per cycle (core level) ((Count/Cycle))
system.cpu11.numWorkItemsStarted                    0                       # Number of work items this cpu started (Count)
system.cpu11.numWorkItemsCompleted                  0                       # Number of work items this cpu completed (Count)
system.cpu11.numVMExits                             1                       # total number of KVM exits (Count)
system.cpu11.numVMHalfEntries                       1                       # number of KVM entries to finalize pending operations (Count)
system.cpu11.numExitSignal                          1                       # exits due to signal delivery (Count)
system.cpu11.numMMIO                                1                       # number of VM exits due to memory mapped IO (Count)
system.cpu11.numCoalescedMMIO                       0                       # number of coalesced memory mapped IO requests (Count)
system.cpu11.numIO                                  0                       # number of VM exits due to legacy IO (Count)
system.cpu11.numHalt                                0                       # number of VM exits due to wait for interrupt instructions (Count)
system.cpu11.numInterrupts                          0                       # number of interrupts delivered (Count)
system.cpu11.numHypercalls                          0                       # number of hypercalls (Count)
system.cpu11.commitStats0.numOps                    0                       # Number of ops (including micro ops) committed (thread level) (Count)
system.cpu11.commitStats0.numInstsNotNOP            0                       # Number of instructions committed excluding NOPs or prefetches (Count)
system.cpu11.commitStats0.numOpsNotNOP              0                       # Number of Ops (including micro ops) Simulated (Count)
system.cpu11.commitStats0.cpi                     nan                       # CPI: cycles per instruction (thread level) ((Cycle/Count))
system.cpu11.commitStats0.ipc                     nan                       # IPC: instructions per cycle (thread level) ((Count/Cycle))
system.cpu11.commitStats0.numMemRefs                0                       # Number of memory references committed (Count)
system.cpu11.commitStats0.numFpInsts                0                       # Number of float instructions (Count)
system.cpu11.commitStats0.numIntInsts               0                       # Number of integer instructions (Count)
system.cpu11.commitStats0.numLoadInsts              0                       # Number of load instructions (Count)
system.cpu11.commitStats0.numStoreInsts             0                       # Number of store instructions (Count)
system.cpu11.commitStats0.numVecInsts               0                       # Number of vector instructions (Count)
system.cpu11.commitStats0.committedInstType::No_OpClass            0                       # Class of committed instruction. (Count)
system.cpu11.commitStats0.committedInstType::IntAlu            0                       # Class of committed instruction. (Count)
system.cpu11.commitStats0.committedInstType::IntMult            0                       # Class of committed instruction. (Count)
system.cpu11.commitStats0.committedInstType::IntDiv            0                       # Class of committed instruction. (Count)
system.cpu11.commitStats0.committedInstType::FloatAdd            0                       # Class of committed instruction. (Count)
system.cpu11.commitStats0.committedInstType::FloatCmp            0                       # Class of committed instruction. (Count)
system.cpu11.commitStats0.committedInstType::FloatCvt            0                       # Class of committed instruction. (Count)
system.cpu11.commitStats0.committedInstType::FloatMult            0                       # Class of committed instruction. (Count)
system.cpu11.commitStats0.committedInstType::FloatMultAcc            0                       # Class of committed instruction. (Count)
system.cpu11.commitStats0.committedInstType::FloatDiv            0                       # Class of committed instruction. (Count)
system.cpu11.commitStats0.committedInstType::FloatMisc            0                       # Class of committed instruction. (Count)
system.cpu11.commitStats0.committedInstType::FloatSqrt            0                       # Class of committed instruction. (Count)
system.cpu11.commitStats0.committedInstType::SimdAdd            0                       # Class of committed instruction. (Count)
system.cpu11.commitStats0.committedInstType::SimdAddAcc            0                       # Class of committed instruction. (Count)
system.cpu11.commitStats0.committedInstType::SimdAlu            0                       # Class of committed instruction. (Count)
system.cpu11.commitStats0.committedInstType::SimdCmp            0                       # Class of committed instruction. (Count)
system.cpu11.commitStats0.committedInstType::SimdCvt            0                       # Class of committed instruction. (Count)
system.cpu11.commitStats0.committedInstType::SimdMisc            0                       # Class of committed instruction. (Count)
system.cpu11.commitStats0.committedInstType::SimdMult            0                       # Class of committed instruction. (Count)
system.cpu11.commitStats0.committedInstType::SimdMultAcc            0                       # Class of committed instruction. (Count)
system.cpu11.commitStats0.committedInstType::SimdMatMultAcc            0                       # Class of committed instruction. (Count)
system.cpu11.commitStats0.committedInstType::SimdShift            0                       # Class of committed instruction. (Count)
system.cpu11.commitStats0.committedInstType::SimdShiftAcc            0                       # Class of committed instruction. (Count)
system.cpu11.commitStats0.committedInstType::SimdDiv            0                       # Class of committed instruction. (Count)
system.cpu11.commitStats0.committedInstType::SimdSqrt            0                       # Class of committed instruction. (Count)
system.cpu11.commitStats0.committedInstType::SimdFloatAdd            0                       # Class of committed instruction. (Count)
system.cpu11.commitStats0.committedInstType::SimdFloatAlu            0                       # Class of committed instruction. (Count)
system.cpu11.commitStats0.committedInstType::SimdFloatCmp            0                       # Class of committed instruction. (Count)
system.cpu11.commitStats0.committedInstType::SimdFloatCvt            0                       # Class of committed instruction. (Count)
system.cpu11.commitStats0.committedInstType::SimdFloatDiv            0                       # Class of committed instruction. (Count)
system.cpu11.commitStats0.committedInstType::SimdFloatMisc            0                       # Class of committed instruction. (Count)
system.cpu11.commitStats0.committedInstType::SimdFloatMult            0                       # Class of committed instruction. (Count)
system.cpu11.commitStats0.committedInstType::SimdFloatMultAcc            0                       # Class of committed instruction. (Count)
system.cpu11.commitStats0.committedInstType::SimdFloatMatMultAcc            0                       # Class of committed instruction. (Count)
system.cpu11.commitStats0.committedInstType::SimdFloatSqrt            0                       # Class of committed instruction. (Count)
system.cpu11.commitStats0.committedInstType::SimdReduceAdd            0                       # Class of committed instruction. (Count)
system.cpu11.commitStats0.committedInstType::SimdReduceAlu            0                       # Class of committed instruction. (Count)
system.cpu11.commitStats0.committedInstType::SimdReduceCmp            0                       # Class of committed instruction. (Count)
system.cpu11.commitStats0.committedInstType::SimdFloatReduceAdd            0                       # Class of committed instruction. (Count)
system.cpu11.commitStats0.committedInstType::SimdFloatReduceCmp            0                       # Class of committed instruction. (Count)
system.cpu11.commitStats0.committedInstType::SimdAes            0                       # Class of committed instruction. (Count)
system.cpu11.commitStats0.committedInstType::SimdAesMix            0                       # Class of committed instruction. (Count)
system.cpu11.commitStats0.committedInstType::SimdSha1Hash            0                       # Class of committed instruction. (Count)
system.cpu11.commitStats0.committedInstType::SimdSha1Hash2            0                       # Class of committed instruction. (Count)
system.cpu11.commitStats0.committedInstType::SimdSha256Hash            0                       # Class of committed instruction. (Count)
system.cpu11.commitStats0.committedInstType::SimdSha256Hash2            0                       # Class of committed instruction. (Count)
system.cpu11.commitStats0.committedInstType::SimdShaSigma2            0                       # Class of committed instruction. (Count)
system.cpu11.commitStats0.committedInstType::SimdShaSigma3            0                       # Class of committed instruction. (Count)
system.cpu11.commitStats0.committedInstType::SimdPredAlu            0                       # Class of committed instruction. (Count)
system.cpu11.commitStats0.committedInstType::Matrix            0                       # Class of committed instruction. (Count)
system.cpu11.commitStats0.committedInstType::MatrixMov            0                       # Class of committed instruction. (Count)
system.cpu11.commitStats0.committedInstType::MatrixOP            0                       # Class of committed instruction. (Count)
system.cpu11.commitStats0.committedInstType::MemRead            0                       # Class of committed instruction. (Count)
system.cpu11.commitStats0.committedInstType::MemWrite            0                       # Class of committed instruction. (Count)
system.cpu11.commitStats0.committedInstType::FloatMemRead            0                       # Class of committed instruction. (Count)
system.cpu11.commitStats0.committedInstType::FloatMemWrite            0                       # Class of committed instruction. (Count)
system.cpu11.commitStats0.committedInstType::IprAccess            0                       # Class of committed instruction. (Count)
system.cpu11.commitStats0.committedInstType::InstPrefetch            0                       # Class of committed instruction. (Count)
system.cpu11.commitStats0.committedInstType::VectorUnitStrideLoad            0                       # Class of committed instruction. (Count)
system.cpu11.commitStats0.committedInstType::VectorUnitStrideStore            0                       # Class of committed instruction. (Count)
system.cpu11.commitStats0.committedInstType::VectorUnitStrideMaskLoad            0                       # Class of committed instruction. (Count)
system.cpu11.commitStats0.committedInstType::VectorUnitStrideMaskStore            0                       # Class of committed instruction. (Count)
system.cpu11.commitStats0.committedInstType::VectorStridedLoad            0                       # Class of committed instruction. (Count)
system.cpu11.commitStats0.committedInstType::VectorStridedStore            0                       # Class of committed instruction. (Count)
system.cpu11.commitStats0.committedInstType::VectorIndexedLoad            0                       # Class of committed instruction. (Count)
system.cpu11.commitStats0.committedInstType::VectorIndexedStore            0                       # Class of committed instruction. (Count)
system.cpu11.commitStats0.committedInstType::VectorUnitStrideFaultOnlyFirstLoad            0                       # Class of committed instruction. (Count)
system.cpu11.commitStats0.committedInstType::VectorWholeRegisterLoad            0                       # Class of committed instruction. (Count)
system.cpu11.commitStats0.committedInstType::VectorWholeRegisterStore            0                       # Class of committed instruction. (Count)
system.cpu11.commitStats0.committedInstType::VectorIntegerArith            0                       # Class of committed instruction. (Count)
system.cpu11.commitStats0.committedInstType::VectorFloatArith            0                       # Class of committed instruction. (Count)
system.cpu11.commitStats0.committedInstType::VectorFloatConvert            0                       # Class of committed instruction. (Count)
system.cpu11.commitStats0.committedInstType::VectorIntegerReduce            0                       # Class of committed instruction. (Count)
system.cpu11.commitStats0.committedInstType::VectorFloatReduce            0                       # Class of committed instruction. (Count)
system.cpu11.commitStats0.committedInstType::VectorMisc            0                       # Class of committed instruction. (Count)
system.cpu11.commitStats0.committedInstType::VectorIntegerExtension            0                       # Class of committed instruction. (Count)
system.cpu11.commitStats0.committedInstType::VectorConfig            0                       # Class of committed instruction. (Count)
system.cpu11.commitStats0.committedInstType::total            0                       # Class of committed instruction. (Count)
system.cpu11.executeStats0.numInsts                 0                       # Number of executed instructions (Count)
system.cpu11.executeStats0.numNop                   0                       # Number of nop insts executed (Count)
system.cpu11.executeStats0.numBranches              0                       # Number of branches executed (Count)
system.cpu11.executeStats0.numLoadInsts             0                       # Number of load instructions executed (Count)
system.cpu11.executeStats0.numStoreInsts            0                       # Number of stores executed (Count)
system.cpu11.executeStats0.instRate               nan                       # Inst execution rate ((Count/Cycle))
system.cpu11.executeStats0.numFpRegWrites            0                       # Number of times the floating registers were written (Count)
system.cpu11.executeStats0.numMemRefs               0                       # Number of memory refs (Count)
system.cpu11.executeStats0.numVecAluAccesses            0                       # Number of vector alu accesses (Count)
system.cpu11.executeStats0.numDiscardedOps            0                       # Number of ops (including micro ops) which were discarded before commit (Count)
system.cpu11.fetchStats0.numInsts                   0                       # Number of instructions fetched (thread level) (Count)
system.cpu11.fetchStats0.numOps                     0                       # Number of ops (including micro ops) fetched (thread level) (Count)
system.cpu11.fetchStats0.fetchRate                nan                       # Number of inst fetches per cycle ((Count/Cycle))
system.cpu11.fetchStats0.branchRate               nan                       # Number of branch fetches per cycle (Ratio)
system.cpu11.fetchStats0.numFetchSuspends            0                       # Number of times Execute suspended instruction fetching (Count)
system.cpu11.interrupts.clk_domain.clock         8000                       # Clock period in ticks (Tick)
system.cpu11.mmu.dtb.rdAccesses                     0                       # TLB accesses on read requests (Count)
system.cpu11.mmu.dtb.wrAccesses                     0                       # TLB accesses on write requests (Count)
system.cpu11.mmu.dtb.rdMisses                       0                       # TLB misses on read requests (Count)
system.cpu11.mmu.dtb.wrMisses                       0                       # TLB misses on write requests (Count)
system.cpu11.mmu.dtb.walker.power_state.pwrStateResidencyTicks::UNDEFINED 21229742116001                       # Cumulative time (in ticks) in various power states (Tick)
system.cpu11.mmu.itb.rdAccesses                     0                       # TLB accesses on read requests (Count)
system.cpu11.mmu.itb.wrAccesses                     0                       # TLB accesses on write requests (Count)
system.cpu11.mmu.itb.rdMisses                       0                       # TLB misses on read requests (Count)
system.cpu11.mmu.itb.wrMisses                       0                       # TLB misses on write requests (Count)
system.cpu11.mmu.itb.walker.power_state.pwrStateResidencyTicks::UNDEFINED 21229742116001                       # Cumulative time (in ticks) in various power states (Tick)
system.cpu11.power_state.numTransitions             1                       # Number of power state transitions (Count)
system.cpu11.power_state.pwrStateResidencyTicks::ON 21144446698000                       # Cumulative time (in ticks) in various power states (Tick)
system.cpu11.power_state.pwrStateResidencyTicks::OFF  85295418001                       # Cumulative time (in ticks) in various power states (Tick)
system.cpu11.thread_0.numInsts                      0                       # Number of Instructions committed (Count)
system.cpu11.thread_0.numOps                        0                       # Number of Ops committed (Count)
system.cpu11.thread_0.numMemRefs                    0                       # Number of Memory References (Count)
system.cpu12.numCycles                              0                       # Number of cpu cycles simulated (Cycle)
system.cpu12.cpi                                  nan                       # CPI: cycles per instruction (core level) ((Cycle/Count))
system.cpu12.ipc                                  nan                       # IPC: instructions per cycle (core level) ((Count/Cycle))
system.cpu12.numWorkItemsStarted                    0                       # Number of work items this cpu started (Count)
system.cpu12.numWorkItemsCompleted                  0                       # Number of work items this cpu completed (Count)
system.cpu12.numVMExits                             0                       # total number of KVM exits (Count)
system.cpu12.numVMHalfEntries                       0                       # number of KVM entries to finalize pending operations (Count)
system.cpu12.numExitSignal                          0                       # exits due to signal delivery (Count)
system.cpu12.numMMIO                                0                       # number of VM exits due to memory mapped IO (Count)
system.cpu12.numCoalescedMMIO                       0                       # number of coalesced memory mapped IO requests (Count)
system.cpu12.numIO                                  0                       # number of VM exits due to legacy IO (Count)
system.cpu12.numHalt                                0                       # number of VM exits due to wait for interrupt instructions (Count)
system.cpu12.numInterrupts                          0                       # number of interrupts delivered (Count)
system.cpu12.numHypercalls                          0                       # number of hypercalls (Count)
system.cpu12.commitStats0.numOps                    0                       # Number of ops (including micro ops) committed (thread level) (Count)
system.cpu12.commitStats0.numInstsNotNOP            0                       # Number of instructions committed excluding NOPs or prefetches (Count)
system.cpu12.commitStats0.numOpsNotNOP              0                       # Number of Ops (including micro ops) Simulated (Count)
system.cpu12.commitStats0.cpi                     nan                       # CPI: cycles per instruction (thread level) ((Cycle/Count))
system.cpu12.commitStats0.ipc                     nan                       # IPC: instructions per cycle (thread level) ((Count/Cycle))
system.cpu12.commitStats0.numMemRefs                0                       # Number of memory references committed (Count)
system.cpu12.commitStats0.numFpInsts                0                       # Number of float instructions (Count)
system.cpu12.commitStats0.numIntInsts               0                       # Number of integer instructions (Count)
system.cpu12.commitStats0.numLoadInsts              0                       # Number of load instructions (Count)
system.cpu12.commitStats0.numStoreInsts             0                       # Number of store instructions (Count)
system.cpu12.commitStats0.numVecInsts               0                       # Number of vector instructions (Count)
system.cpu12.commitStats0.committedInstType::No_OpClass            0                       # Class of committed instruction. (Count)
system.cpu12.commitStats0.committedInstType::IntAlu            0                       # Class of committed instruction. (Count)
system.cpu12.commitStats0.committedInstType::IntMult            0                       # Class of committed instruction. (Count)
system.cpu12.commitStats0.committedInstType::IntDiv            0                       # Class of committed instruction. (Count)
system.cpu12.commitStats0.committedInstType::FloatAdd            0                       # Class of committed instruction. (Count)
system.cpu12.commitStats0.committedInstType::FloatCmp            0                       # Class of committed instruction. (Count)
system.cpu12.commitStats0.committedInstType::FloatCvt            0                       # Class of committed instruction. (Count)
system.cpu12.commitStats0.committedInstType::FloatMult            0                       # Class of committed instruction. (Count)
system.cpu12.commitStats0.committedInstType::FloatMultAcc            0                       # Class of committed instruction. (Count)
system.cpu12.commitStats0.committedInstType::FloatDiv            0                       # Class of committed instruction. (Count)
system.cpu12.commitStats0.committedInstType::FloatMisc            0                       # Class of committed instruction. (Count)
system.cpu12.commitStats0.committedInstType::FloatSqrt            0                       # Class of committed instruction. (Count)
system.cpu12.commitStats0.committedInstType::SimdAdd            0                       # Class of committed instruction. (Count)
system.cpu12.commitStats0.committedInstType::SimdAddAcc            0                       # Class of committed instruction. (Count)
system.cpu12.commitStats0.committedInstType::SimdAlu            0                       # Class of committed instruction. (Count)
system.cpu12.commitStats0.committedInstType::SimdCmp            0                       # Class of committed instruction. (Count)
system.cpu12.commitStats0.committedInstType::SimdCvt            0                       # Class of committed instruction. (Count)
system.cpu12.commitStats0.committedInstType::SimdMisc            0                       # Class of committed instruction. (Count)
system.cpu12.commitStats0.committedInstType::SimdMult            0                       # Class of committed instruction. (Count)
system.cpu12.commitStats0.committedInstType::SimdMultAcc            0                       # Class of committed instruction. (Count)
system.cpu12.commitStats0.committedInstType::SimdMatMultAcc            0                       # Class of committed instruction. (Count)
system.cpu12.commitStats0.committedInstType::SimdShift            0                       # Class of committed instruction. (Count)
system.cpu12.commitStats0.committedInstType::SimdShiftAcc            0                       # Class of committed instruction. (Count)
system.cpu12.commitStats0.committedInstType::SimdDiv            0                       # Class of committed instruction. (Count)
system.cpu12.commitStats0.committedInstType::SimdSqrt            0                       # Class of committed instruction. (Count)
system.cpu12.commitStats0.committedInstType::SimdFloatAdd            0                       # Class of committed instruction. (Count)
system.cpu12.commitStats0.committedInstType::SimdFloatAlu            0                       # Class of committed instruction. (Count)
system.cpu12.commitStats0.committedInstType::SimdFloatCmp            0                       # Class of committed instruction. (Count)
system.cpu12.commitStats0.committedInstType::SimdFloatCvt            0                       # Class of committed instruction. (Count)
[...]
system.ruby.network.routers112.sw_output_arbiter_activity     18333998                       (Unspecified)
system.ruby.network.routers113.buffer_reads     14384179                       (Unspecified)
system.ruby.network.routers113.buffer_writes     14384179                       (Unspecified)
system.ruby.network.routers113.crossbar_activity     14384177                       (Unspecified)
system.ruby.network.routers113.forwarded_packets      2553992                       (Unspecified)
system.ruby.network.routers113.generated_packets      1533414                       (Unspecified)
system.ruby.network.routers113.received_packets      1561794                       (Unspecified)
system.ruby.network.routers113.sw_input_arbiter_activity     14625960                       (Unspecified)
system.ruby.network.routers113.sw_output_arbiter_activity     14384177                       (Unspecified)
system.ruby.network.routers121.buffer_reads     20923345                       (Unspecified)
system.ruby.network.routers121.buffer_writes     20923345                       (Unspecified)
system.ruby.network.routers121.crossbar_activity     20923345                       (Unspecified)
system.ruby.network.routers121.forwarded_packets      5030943                       (Unspecified)
system.ruby.network.routers121.generated_packets      1597109                       (Unspecified)
system.ruby.network.routers121.received_packets      1601041                       (Unspecified)
system.ruby.network.routers121.sw_input_arbiter_activity     21211845                       (Unspecified)
system.ruby.network.routers121.sw_output_arbiter_activity     20923345                       (Unspecified)
system.ruby.network.routers122.buffer_reads     35050711                       (Unspecified)
system.ruby.network.routers122.buffer_writes     35050711                       (Unspecified)
system.ruby.network.routers122.crossbar_activity     35050711                       (Unspecified)
system.ruby.network.routers122.forwarded_packets     10261570                       (Unspecified)
system.ruby.network.routers122.generated_packets      1790655                       (Unspecified)
system.ruby.network.routers122.received_packets      1746650                       (Unspecified)
system.ruby.network.routers122.sw_input_arbiter_activity     36361633                       (Unspecified)
system.ruby.network.routers122.sw_output_arbiter_activity     35050711                       (Unspecified)
system.ruby.network.routers123.buffer_reads     24176602                       (Unspecified)
system.ruby.network.routers123.buffer_writes     24176602                       (Unspecified)
system.ruby.network.routers123.crossbar_activity     24176602                       (Unspecified)
system.ruby.network.routers123.forwarded_packets      5927491                       (Unspecified)
system.ruby.network.routers123.generated_packets      1791459                       (Unspecified)
system.ruby.network.routers123.received_packets      1801472                       (Unspecified)
system.ruby.network.routers123.sw_input_arbiter_activity     24791368                       (Unspecified)
system.ruby.network.routers123.sw_output_arbiter_activity     24176602                       (Unspecified)
system.ruby.network.routers131.buffer_reads     16368583                       (Unspecified)
system.ruby.network.routers131.buffer_writes     16368583                       (Unspecified)
system.ruby.network.routers131.crossbar_activity     16368583                       (Unspecified)
system.ruby.network.routers131.forwarded_packets      3120324                       (Unspecified)
system.ruby.network.routers131.generated_packets      1630491                       (Unspecified)
system.ruby.network.routers131.received_packets      1677736                       (Unspecified)
system.ruby.network.routers131.sw_input_arbiter_activity     16569260                       (Unspecified)
system.ruby.network.routers131.sw_output_arbiter_activity     16368583                       (Unspecified)
system.ruby.network.routers132.buffer_reads     21995580                       (Unspecified)
system.ruby.network.routers132.buffer_writes     21995580                       (Unspecified)
system.ruby.network.routers132.crossbar_activity     21995578                       (Unspecified)
system.ruby.network.routers132.forwarded_packets      5457287                       (Unspecified)
system.ruby.network.routers132.generated_packets      1577379                       (Unspecified)
system.ruby.network.routers132.received_packets      1628125                       (Unspecified)
system.ruby.network.routers132.sw_input_arbiter_activity     22506923                       (Unspecified)
system.ruby.network.routers132.sw_output_arbiter_activity     21995578                       (Unspecified)
system.ruby.network.routers133.buffer_reads     22344686                       (Unspecified)
system.ruby.network.routers133.buffer_writes     22344686                       (Unspecified)
system.ruby.network.routers133.crossbar_activity     22344686                       (Unspecified)
system.ruby.network.routers133.forwarded_packets      5467331                       (Unspecified)
system.ruby.network.routers133.generated_packets      1644872                       (Unspecified)
system.ruby.network.routers133.received_packets      1677739                       (Unspecified)
system.ruby.network.routers133.sw_input_arbiter_activity     22999536                       (Unspecified)
system.ruby.network.routers133.sw_output_arbiter_activity     22344686                       (Unspecified)
system.ruby.network.routers211.buffer_reads     34536797                       (Unspecified)
system.ruby.network.routers211.buffer_writes     34536797                       (Unspecified)
system.ruby.network.routers211.crossbar_activity     34536797                       (Unspecified)
system.ruby.network.routers211.forwarded_packets     10062915                       (Unspecified)
system.ruby.network.routers211.generated_packets      1761304                       (Unspecified)
system.ruby.network.routers211.received_packets      1763506                       (Unspecified)
system.ruby.network.routers211.sw_input_arbiter_activity     35774459                       (Unspecified)
system.ruby.network.routers211.sw_output_arbiter_activity     34536797                       (Unspecified)
system.ruby.network.routers212.buffer_reads     22989045                       (Unspecified)
system.ruby.network.routers212.buffer_writes     22989045                       (Unspecified)
system.ruby.network.routers212.crossbar_activity     22989045                       (Unspecified)
system.ruby.network.routers212.forwarded_packets      5039844                       (Unspecified)
system.ruby.network.routers212.generated_packets      1947282                       (Unspecified)
system.ruby.network.routers212.received_packets      2023539                       (Unspecified)
system.ruby.network.routers212.sw_input_arbiter_activity     23346667                       (Unspecified)
system.ruby.network.routers212.sw_output_arbiter_activity     22989045                       (Unspecified)
system.ruby.network.routers213.buffer_reads     21431564                       (Unspecified)
system.ruby.network.routers213.buffer_writes     21431564                       (Unspecified)
system.ruby.network.routers213.crossbar_activity     21431564                       (Unspecified)
system.ruby.network.routers213.forwarded_packets      5157221                       (Unspecified)
system.ruby.network.routers213.generated_packets      1620679                       (Unspecified)
system.ruby.network.routers213.received_packets      1634816                       (Unspecified)
system.ruby.network.routers213.sw_input_arbiter_activity     22015655                       (Unspecified)
system.ruby.network.routers213.sw_output_arbiter_activity     21431564                       (Unspecified)
system.ruby.network.routers221.buffer_reads     17293808                       (Unspecified)
system.ruby.network.routers221.buffer_writes     17293808                       (Unspecified)
system.ruby.network.routers221.crossbar_activity     17293808                       (Unspecified)
system.ruby.network.routers221.forwarded_packets      3790626                       (Unspecified)
system.ruby.network.routers221.generated_packets      1474979                       (Unspecified)
system.ruby.network.routers221.received_packets      1548935                       (Unspecified)
system.ruby.network.routers221.sw_input_arbiter_activity     17597364                       (Unspecified)
system.ruby.network.routers221.sw_output_arbiter_activity     17293808                       (Unspecified)
system.ruby.network.routers222.buffer_reads      8246546                       (Unspecified)
system.ruby.network.routers222.buffer_writes      8246546                       (Unspecified)
system.ruby.network.routers222.crossbar_activity      8246546                       (Unspecified)
system.ruby.network.routers222.forwarded_packets            0                       (Unspecified)
system.ruby.network.routers222.generated_packets      1602790                       (Unspecified)
system.ruby.network.routers222.received_packets      1625564                       (Unspecified)
system.ruby.network.routers222.sw_input_arbiter_activity      8282873                       (Unspecified)
system.ruby.network.routers222.sw_output_arbiter_activity      8246546                       (Unspecified)
system.ruby.network.routers223.buffer_reads     12917212                       (Unspecified)
system.ruby.network.routers223.buffer_writes     12917212                       (Unspecified)
system.ruby.network.routers223.crossbar_activity     12917212                       (Unspecified)
system.ruby.network.routers223.forwarded_packets      1915043                       (Unspecified)
system.ruby.network.routers223.generated_packets      1570563                       (Unspecified)
system.ruby.network.routers223.received_packets      1604166                       (Unspecified)
system.ruby.network.routers223.sw_input_arbiter_activity     13091220                       (Unspecified)
system.ruby.network.routers223.sw_output_arbiter_activity     12917212                       (Unspecified)
system.ruby.network.routers231.buffer_reads     19012631                       (Unspecified)
system.ruby.network.routers231.buffer_writes     19012631                       (Unspecified)
system.ruby.network.routers231.crossbar_activity     19012631                       (Unspecified)
system.ruby.network.routers231.forwarded_packets      4128819                       (Unspecified)
system.ruby.network.routers231.generated_packets      1654624                       (Unspecified)
system.ruby.network.routers231.received_packets      1682636                       (Unspecified)
system.ruby.network.routers231.sw_input_arbiter_activity     19348228                       (Unspecified)
system.ruby.network.routers231.sw_output_arbiter_activity     19012631                       (Unspecified)
system.ruby.network.routers232.buffer_reads      9927046                       (Unspecified)
system.ruby.network.routers232.buffer_writes      9927046                       (Unspecified)
system.ruby.network.routers232.crossbar_activity      9927046                       (Unspecified)
system.ruby.network.routers232.forwarded_packets      2640276                       (Unspecified)
system.ruby.network.routers232.generated_packets       717286                       (Unspecified)
system.ruby.network.routers232.received_packets       549376                       (Unspecified)
system.ruby.network.routers232.sw_input_arbiter_activity      9956200                       (Unspecified)
system.ruby.network.routers232.sw_output_arbiter_activity      9927046                       (Unspecified)
system.ruby.network.routers233.buffer_reads     15633647                       (Unspecified)
system.ruby.network.routers233.buffer_writes     15633647                       (Unspecified)
system.ruby.network.routers233.crossbar_activity     15633647                       (Unspecified)
system.ruby.network.routers233.forwarded_packets      4909419                       (Unspecified)
system.ruby.network.routers233.generated_packets       689722                       (Unspecified)
system.ruby.network.routers233.received_packets       529490                       (Unspecified)
system.ruby.network.routers233.sw_input_arbiter_activity     15929877                       (Unspecified)
system.ruby.network.routers233.sw_output_arbiter_activity     15633647                       (Unspecified)
system.ruby.network.routers311.buffer_reads     17043623                       (Unspecified)
system.ruby.network.routers311.buffer_writes     17043623                       (Unspecified)
system.ruby.network.routers311.crossbar_activity     17043623                       (Unspecified)
system.ruby.network.routers311.forwarded_packets      5491960                       (Unspecified)
system.ruby.network.routers311.generated_packets       684126                       (Unspecified)
system.ruby.network.routers311.received_packets       525601                       (Unspecified)
system.ruby.network.routers311.sw_input_arbiter_activity     17208908                       (Unspecified)
system.ruby.network.routers311.sw_output_arbiter_activity     17043623                       (Unspecified)
system.ruby.network.routers312.buffer_reads     11140296                       (Unspecified)
system.ruby.network.routers312.buffer_writes     11140296                       (Unspecified)
system.ruby.network.routers312.crossbar_activity     11140296                       (Unspecified)
system.ruby.network.routers312.forwarded_packets      3156763                       (Unspecified)
system.ruby.network.routers312.generated_packets       688386                       (Unspecified)
system.ruby.network.routers312.received_packets       528523                       (Unspecified)
system.ruby.network.routers312.sw_input_arbiter_activity     11223232                       (Unspecified)
system.ruby.network.routers312.sw_output_arbiter_activity     11140296                       (Unspecified)
system.ruby.network.routers313.buffer_reads      8488550                       (Unspecified)
system.ruby.network.routers313.buffer_writes      8488550                       (Unspecified)
system.ruby.network.routers313.crossbar_activity      8488550                       (Unspecified)
system.ruby.network.routers313.forwarded_packets      2048639                       (Unspecified)
system.ruby.network.routers313.generated_packets       730042                       (Unspecified)
system.ruby.network.routers313.received_packets       559613                       (Unspecified)
system.ruby.network.routers313.sw_input_arbiter_activity      8504421                       (Unspecified)
system.ruby.network.routers313.sw_output_arbiter_activity      8488550                       (Unspecified)
system.ruby.network.routers321.buffer_reads     10758514                       (Unspecified)
system.ruby.network.routers321.buffer_writes     10758514                       (Unspecified)
system.ruby.network.routers321.crossbar_activity     10758514                       (Unspecified)
system.ruby.network.routers321.forwarded_packets      3012217                       (Unspecified)
system.ruby.network.routers321.generated_packets       684220                       (Unspecified)
system.ruby.network.routers321.received_packets       525709                       (Unspecified)
system.ruby.network.routers321.sw_input_arbiter_activity     10840822                       (Unspecified)
system.ruby.network.routers321.sw_output_arbiter_activity     10758514                       (Unspecified)
system.ruby.network.routers322.buffer_reads     14320945                       (Unspecified)
system.ruby.network.routers322.buffer_writes     14320945                       (Unspecified)
system.ruby.network.routers322.crossbar_activity     14320945                       (Unspecified)
system.ruby.network.routers322.forwarded_packets      4323508                       (Unspecified)
system.ruby.network.routers322.generated_packets       730215                       (Unspecified)
system.ruby.network.routers322.received_packets       558578                       (Unspecified)
system.ruby.network.routers322.sw_input_arbiter_activity     14439796                       (Unspecified)
system.ruby.network.routers322.sw_output_arbiter_activity     14320945                       (Unspecified)
system.ruby.network.routers323.buffer_reads      7252276                       (Unspecified)
system.ruby.network.routers323.buffer_writes      7252276                       (Unspecified)
system.ruby.network.routers323.crossbar_activity      7252276                       (Unspecified)
system.ruby.network.routers323.forwarded_packets      1635881                       (Unspecified)
system.ruby.network.routers323.generated_packets       680627                       (Unspecified)
system.ruby.network.routers323.received_packets       522836                       (Unspecified)
system.ruby.network.routers323.sw_input_arbiter_activity      7262709                       (Unspecified)
system.ruby.network.routers323.sw_output_arbiter_activity      7252276                       (Unspecified)
system.ruby.network.routers331.buffer_reads      6623002                       (Unspecified)
system.ruby.network.routers331.buffer_writes      6623002                       (Unspecified)
system.ruby.network.routers331.crossbar_activity      6623002                       (Unspecified)
system.ruby.network.routers331.forwarded_packets      1361872                       (Unspecified)
system.ruby.network.routers331.generated_packets       701901                       (Unspecified)
system.ruby.network.routers331.received_packets       538761                       (Unspecified)
system.ruby.network.routers331.sw_input_arbiter_activity      6647323                       (Unspecified)
system.ruby.network.routers331.sw_output_arbiter_activity      6623002                       (Unspecified)
system.ruby.network.routers332.buffer_reads      5924433                       (Unspecified)
system.ruby.network.routers332.buffer_writes      5924433                       (Unspecified)
system.ruby.network.routers332.crossbar_activity      5924433                       (Unspecified)
system.ruby.network.routers332.forwarded_packets      1101253                       (Unspecified)
system.ruby.network.routers332.generated_packets       689134                       (Unspecified)
system.ruby.network.routers332.received_packets       529218                       (Unspecified)
system.ruby.network.routers332.sw_input_arbiter_activity      5942919                       (Unspecified)
system.ruby.network.routers332.sw_output_arbiter_activity      5924433                       (Unspecified)
system.ruby.network.routers333.buffer_reads      3134867                       (Unspecified)
system.ruby.network.routers333.buffer_writes      3134867                       (Unspecified)
system.ruby.network.routers333.crossbar_activity      3134867                       (Unspecified)
system.ruby.network.routers333.forwarded_packets            0                       (Unspecified)
system.ruby.network.routers333.generated_packets       696803                       (Unspecified)
system.ruby.network.routers333.received_packets       534272                       (Unspecified)
system.ruby.network.routers333.sw_input_arbiter_activity      3135495                       (Unspecified)
system.ruby.network.routers333.sw_output_arbiter_activity      3134867                       (Unspecified)

---------- End Simulation Statistics   ----------
